# File generated by Flopy version 3.6.0 on 03/13/2024 at 10:42:58.
BEGIN options
  TIME_UNITS  days
END options

BEGIN dimensions
  NPER  1
END dimensions

BEGIN perioddata
       1.00000000  1       2.00000000
END perioddata

