# File generated by Flopy version 3.6.0 on 03/28/2024 at 17:28:42.
BEGIN options
  PRINT_OPTION  summary
  COMPLEXITY  simple
END options

