# File generated by Flopy version 3.6.0 on 03/29/2024 at 16:13:26.
BEGIN options
  PRINT_OPTION  summary
  COMPLEXITY  simple
END options

