# File generated by Flopy version 3.6.0 on 03/13/2024 at 10:42:58.
BEGIN options
  PRINT_OPTION  summary
  COMPLEXITY  simple
END options

