# File generated by Flopy version 3.6.0 on 03/29/2024 at 16:13:26.
BEGIN options
  BUDGET  FILEOUT  Gondebeek_SS.cbc
  HEAD  FILEOUT  Gondebeek_SS.hds
END options

BEGIN period  1
  SAVE  head  last
  SAVE  budget  last
END period  1

