# File generated by Flopy version 3.6.0 on 03/29/2024 at 16:13:26.
BEGIN options
END options

BEGIN timing
  TDIS6  Gondebeek_SS.tdis
END timing

BEGIN models
  gwf6  Gondebeek_SS.nam  gondebeek_ss
END models

BEGIN exchanges
END exchanges

BEGIN solutiongroup  1
  ims6  Gondebeek_SS.ims  gondebeek_ss
END solutiongroup  1

