# File generated by Flopy version 3.6.0 on 03/19/2024 at 17:16:18.
BEGIN options
  PRINT_OPTION  summary
  COMPLEXITY  simple
END options

