# File generated by Flopy version 3.6.0 on 04/30/2024 at 18:05:15.
BEGIN dimensions
  MAXATS  2557
END dimensions

BEGIN perioddata
    OPEN/CLOSE  'Gondebeek.tdis.ats_perioddata.txt'
END perioddata

