# File generated by Flopy version 3.6.0 on 04/30/2024 at 18:09:52.
BEGIN options
END options

BEGIN griddata
  icelltype  LAYERED
    CONSTANT  1
    CONSTANT  1
    CONSTANT  1
    CONSTANT  1
  k  LAYERED
    OPEN/CLOSE  'k_layer1.txt'  FACTOR  1.0
    OPEN/CLOSE  'k_layer2.txt'  FACTOR  1.0
    OPEN/CLOSE  'k_layer3.txt'  FACTOR  1.0
    OPEN/CLOSE  'k_layer4.txt'  FACTOR  1.0
END griddata

