# File generated by Flopy version 3.6.0 on 04/30/2024 at 18:05:15.
BEGIN options
  SAVE_FLOWS
  NEWTON  UNDER_RELAXATION
END options

BEGIN packages
  drn6  Gondebeek.drn  drn
  riv6  Gondebeek.riv  riv
  rch6  Gondebeek.rcha  rch
  sto6  Gondebeek.sto  sto
  dis6  Gondebeek.dis  dis
  ic6  Gondebeek.ic  ic
  oc6  Gondebeek.oc  oc
  NPF6  gondebeek.npf  npf
END packages

