# File generated by Flopy version 3.6.0 on 04/30/2024 at 18:05:40.
BEGIN griddata
  strt  LAYERED
    OPEN/CLOSE  'Gondebeek.ic_strt_layer1.txt'  FACTOR  1.0
    OPEN/CLOSE  'Gondebeek.ic_strt_layer2.txt'  FACTOR  1.0
    OPEN/CLOSE  'Gondebeek.ic_strt_layer3.txt'  FACTOR  1.0
    OPEN/CLOSE  'Gondebeek.ic_strt_layer4.txt'  FACTOR  1.0
END griddata

