pcf
* control data
restart regularisation
      30   18475       3      30       4
    14     1 single  point  1   0   0
 10.0  -3.0  0.3  0.03  10  999 lamforgive derforgive
 10.0  10.0  0.001
 0.1  noaui
 0  0.005  4  4  0.005  4
 1  1  1
* singular value decomposition
    1
    29   5.0e-7
    0
* parameter groups
 c     relative    0.01  0.0  switch  2.0 parabolic
 k     relative    0.01  0.0  switch  2.0 parabolic
 s     relative    0.01  0.0  switch  2.0 parabolic
* parameter data
k1           none relative   1.0000000E-03  1.0e-4  7.0e2 k     1.0  0.0  1
k2           none relative   1.0000000E-03  1.0e-4  7.0e2 k     1.0  0.0  1
k3           none relative   0.3435694      1.0e-4  7.0e2 k     1.0  0.0  1
k4           none relative    5.026711      1.0e-4  7.0e2 k     1.0  0.0  1
k5           none relative    19.35667      1.0e-4  7.0e2 k     1.0  0.0  1
k6           none relative   0.5334957      1.0e-4  7.0e2 k     1.0  0.0  1
k7           none relative   1.0000000E-03  1.0e-4  7.0e2 k     1.0  0.0  1
k8           none relative    6.349571      1.0e-4  7.0e2 k     1.0  0.0  1
k9           none relative    2.262273      1.0e-4  7.0e2 k     1.0  0.0  1
k10          none relative   8.0000785E-02  1.0e-4  7.0e2 k     1.0  0.0  1
k11          none relative   1.0000000E-03  1.0e-4  7.0e2 k     1.0  0.0  1
k12          none relative    2.280771      1.0e-4  7.0e2 k     1.0  0.0  1
k13          none relative   1.1000000E-02  1.0e-4  7.0e2 k     1.0  0.0  1
k14          none relative   1.0013849E-03  1.0e-4  7.0e2 k     1.0  0.0  1
k15          none relative   1.0000000E-03  1.0e-4  7.0e2 k     1.0  0.0  1
k16          none relative   1.0000000E-03  1.0e-4  7.0e2 k     1.0  0.0  1
 ss1.0        none relative   0.009  1.0e-7 0.3    s     1.0  0.0  1
 ss2.0        none relative   1e-5  1.0e-7 0.3    s     1.0  0.0  1
 ss3.0        none relative   9.9999998e-05  1.0e-7 0.3    s     1.0  0.0  1
 ss4.0        none relative   0.009  1.0e-7 0.3    s     1.0  0.0  1
 ss5.0        none relative   1e-05  1.0e-7 0.3    s     1.0  0.0  1
 ss6.0        none relative   0.009  1.0e-7 0.3    s     1.0  0.0  1
 ss7.0        none relative   1e-05  1.0e-7 0.3    s     1.0  0.0  1
 ss8.0        none relative   0.009 1.0e-7 0.3    s     1.0  0.0  1
 sy1.0        none relative   0.05  1.0e-7 0.3    s     1.0  0.0  1
 sy2.0        none relative   0.05  1.0e-7 0.3    s     1.0  0.0  1
 sy3.0        none relative   0.05  1.0e-7 0.3    s     1.0  0.0  1
 sy4.0        none relative   0.05  1.0e-7 0.3    s     1.0  0.0  1
c            none relative    46.32617      1.0e-5  1.0e3 c     1.0  0.0  1
c2           none relative    29.18091      1.0e-5  1.0e3 c     1.0  0.0  1
* observation groups
 head
regul_c
regul_k
regul_s
* observation data
 mel_1_0001               17.00000      100.0  head
 mel_1_0002               16.33000      100.0  head
 mel_1_0003               16.03000      100.0  head
 mel_1_0004               16.96500      100.0  head
 mel_1_0005               16.82000      100.0  head
 mel_1_0006               16.67000      100.0  head
 mel_1_0007               17.13000      100.0  head
 mel_1_0008               17.12000      100.0  head
 mel_1_0009               16.37000      100.0  head
 mel_1_0010               17.09500      100.0  head
 mel_1_0011               17.13000      100.0  head
 mel_1_0012               17.05000      100.0  head
 mel_1_0013               16.81500      100.0  head
 mel_1_0014               16.68000      100.0  head
 mel_1_0015               17.13000      100.0  head
 mel_1_0016               17.11000      100.0  head
 mel_1_0017               17.04000      100.0  head
 mel_1_0018               17.12000      100.0  head
 mel_1_0019               17.05000      100.0  head
 mel_1_0020               17.25000      100.0  head
 mel_1_0021               16.90000      100.0  head
 mel_1_0022               16.98000      100.0  head
 mel_1_0023               17.13000      100.0  head
 mel_1_0024               16.98000      100.0  head
 mel_1_0025               17.21000      100.0  head
 mel_1_0026               17.09000      100.0  head
 mel_1_0027               16.86000      100.0  head
 mel_1_0028               16.92000      100.0  head
 mel_1_0029               17.11000      100.0  head
 mel_1_0030               17.06000      100.0  head
 mel_1_0031               17.23000      100.0  head
 mel_1_0032               17.18000      100.0  head
 mel_1_0033               17.00000      100.0  head
 mel_1_0034               16.91000      100.0  head
 mel_1_0035               17.18000      100.0  head
 mel_1_0036               17.18500      100.0  head
 mel_1_0037               17.04000      100.0  head
 mel_1_0038               16.80000      100.0  head
 mel_1_0039               16.76000      100.0  head
 mel_1_0040               17.12000      100.0  head
 mel_1_0041               17.22000      100.0  head
 mel_1_0042               16.95000      100.0  head
 mel_1_0043               17.09000      100.0  head
 mel_1_0044               16.89000      100.0  head
 mel_1_0045               16.96500      100.0  head
 mel_1_0046               17.18000      100.0  head
 mel_1_0047               16.75000      100.0  head
 mel_1_0048               17.00000      100.0  head
 mel_1_0049               16.86000      100.0  head
 mel_1_0050               16.68000      100.0  head
 mel_1_0051               16.82000      100.0  head
 mel_1_0052               17.06000      100.0  head
 mel_1_0053               16.62667      100.0  head
 mel_1_0054               16.34000      100.0  head
 mel_1_0055               16.64000      100.0  head
 mel_1_0056               16.71000      100.0  head
 mel_1_0057               16.40000      100.0  head
 mel_1_0058               16.60000      100.0  head
 mel_1_0059               16.53000      100.0  head
 mel_1_0060               16.95000      100.0  head
 mel_1_0061               16.47000      100.0  head
 mel_1_0062               16.43000      100.0  head
 mel_1_0063               16.18000      100.0  head
 mel_1_0064               16.26000      100.0  head
 mel_1_0065               16.86000      100.0  head
 mel_1_0066               16.32500      100.0  head
 mel_1_0067               16.39000      100.0  head
 mel_1_0068               16.19000      100.0  head
 mel_1_0069               16.03000      100.0  head
 mel_1_0070               16.23000      100.0  head
 mel_1_0071               16.23500      100.0  head
 mel_1_0072               16.33000      100.0  head
 mel_1_0073               16.04000      100.0  head
 mel_1_0074               15.86000      100.0  head
 mel_1_0075               15.88000      100.0  head
 mel_1_0076               15.86000      100.0  head
 mel_1_0077               15.93000      100.0  head
 mel_1_0078               16.06000      100.0  head
 mel_1_0079               16.06500      100.0  head
 mel_1_0080               16.25000      100.0  head
 mel_1_0081               15.83000      100.0  head
 mel_1_0082               16.08000      100.0  head
 mel_1_0083               16.73000      100.0  head
 mel_1_0084               15.63000      100.0  head
 mel_1_0085               15.93000      100.0  head
 mel_1_0086               15.68000      100.0  head
 mel_1_0087               15.52000      100.0  head
 mel_1_0088               15.74000      100.0  head
 mel_1_0089               15.73000      100.0  head
 mel_1_0090               16.38000      100.0  head
 mel_1_0091               15.63000      100.0  head
 mel_1_0092               15.73000      100.0  head
 mel_1_0093               15.74000      100.0  head
 mel_1_0094               15.90000      100.0  head
 mel_1_0095               15.64500      100.0  head
 mel_1_0096               16.38000      100.0  head
 mel_1_0097               16.71000      100.0  head
 mel_1_0098               15.97000      100.0  head
 mel_1_0099               15.79000      100.0  head
 mel_1_0100               15.93000      100.0  head
 mel_1_0101               15.43000      100.0  head
 mel_1_0102               15.92000      100.0  head
 mel_1_0103               16.19000      100.0  head
 mel_1_0104               16.21000      100.0  head
 mel_1_0105               15.80000      100.0  head
 mel_1_0106               15.60000      100.0  head
 mel_1_0107               15.48000      100.0  head
 mel_1_0108               15.33000      100.0  head
 mel_1_0109               15.76000      100.0  head
 mel_1_0110               16.18000      100.0  head
 mel_1_0111               16.01000      100.0  head
 mel_1_0112               15.66000      100.0  head
 mel_1_0113               15.65000      100.0  head
 mel_1_0114               15.39000      100.0  head
 mel_1_0115               16.49000      100.0  head
 mel_1_0116               15.25000      100.0  head
 mel_1_0117               16.59000      100.0  head
 mel_1_0118               16.03000      100.0  head
 mel_1_0119               15.73000      100.0  head
 mel_1_0120               15.55000      100.0  head
 mel_1_0121               15.43000      100.0  head
 mel_1_0122               15.98000      100.0  head
 mel_1_0123               16.29000      100.0  head
 mel_1_0124               15.58000      100.0  head
 mel_1_0125               16.53000      100.0  head
 mel_1_0126               16.03000      100.0  head
 mel_1_0127               15.69000      100.0  head
 mel_1_0128               15.63000      100.0  head
 mel_1_0129               15.51000      100.0  head
 mel_1_0130               16.03000      100.0  head
 mel_1_0131               15.62000      100.0  head
 mel_1_0132               16.62000      100.0  head
 mel_1_0133               16.19000      100.0  head
 mel_1_0134               16.13000      100.0  head
 mel_1_0135               16.83000      100.0  head
 mel_1_0136               15.85000      100.0  head
 mel_1_0137               15.75000      100.0  head
 mel_1_0138               15.77000      100.0  head
 mel_1_0139               16.31000      100.0  head
 mel_1_0140               15.68000      100.0  head
 mel_1_0141               16.95000      100.0  head
 mel_1_0142               16.55000      100.0  head
 mel_1_0143               15.94000      100.0  head
 mel_1_0144               16.38000      100.0  head
 mel_1_0145               16.96000      100.0  head
 mel_1_0146               17.21000      100.0  head
 mel_1_0147               17.20000      100.0  head
 mel_1_0148               16.38000      100.0  head
 mel_1_0149               16.00000      100.0  head
 mel_1_0150               15.81000      100.0  head
 mel_1_0151               16.91000      100.0  head
 mel_1_0152               17.09000      100.0  head
 mel_1_0153               16.80000      100.0  head
 mel_2_0001               19.00000      100.0  head
 mel_2_0002               18.94000      100.0  head
 mel_2_0003               19.04000      100.0  head
 mel_2_0004               18.93000      100.0  head
 mel_2_0005               18.95000      100.0  head
 mel_2_0006               18.96000      100.0  head
 mel_2_0007               18.97000      100.0  head
 mel_2_0008               18.95000      100.0  head
 mel_2_0009               18.94000      100.0  head
 mel_2_0010               19.00000      100.0  head
 mel_2_0011               18.95000      100.0  head
 mel_2_0012               18.99000      100.0  head
 mel_2_0013               19.00000      100.0  head
 mel_2_0014               18.90000      100.0  head
 mel_2_0015               18.90000      100.0  head
 mel_2_0016               18.91000      100.0  head
 mel_2_0017               18.90000      100.0  head
 mel_2_0018               18.90000      100.0  head
 mel_3_0001               17.38000      100.0  head
 mel_3_0002               17.35000      100.0  head
 mel_3_0003               17.38000      100.0  head
 mel_3_0004               17.60000      100.0  head
 mel_3_0005               17.64000      100.0  head
 mel_3_0006               17.87000      100.0  head
 mel_3_0007               17.45000      100.0  head
 mel_3_0008               17.34000      100.0  head
 mel_3_0009               17.66000      100.0  head
 mel_3_0010               17.97000      100.0  head
 mel_3_0011               18.02000      100.0  head
 mel_3_0012               18.02000      100.0  head
 mel_3_0013               17.79000      100.0  head
 mel_3_0014               17.73000      100.0  head
 mel_3_0015               17.23000      100.0  head
 mel_3_0016               17.73000      100.0  head
 mel_3_0017               17.33000      100.0  head
 mel_3_0018               17.73000      100.0  head
 mel_3_0019               18.10000      100.0  head
 mel_3_0020               18.14000      100.0  head
 mel_3_0021               18.00000      100.0  head
 mel_3_0022               18.01000      100.0  head
 mel_3_0023               17.81000      100.0  head
 mel_3_0024               17.63000      100.0  head
 mel_3_0025               17.21000      100.0  head
 mel_3_0026               17.39000      100.0  head
 mel_3_0027               17.54000      100.0  head
 mel_3_0028               17.70000      100.0  head
 mel_3_0029               17.88000      100.0  head
 mel_3_0030               17.59000      100.0  head
 mel_3_0031               17.83000      100.0  head
 mel_3_0032               17.36000      100.0  head
 mel_3_0033               17.43000      100.0  head
 mel_3_0034               17.22000      100.0  head
 mel_3_0035               17.22000      100.0  head
 mel_3_0036               17.22000      100.0  head
 mel_3_0037               17.22000      100.0  head
 mel_3_0038               17.22000      100.0  head
 mel_3_0039               17.22000      100.0  head
 mel_3_0040               17.22000      100.0  head
 mel_3_0041               17.22000      100.0  head
 mel_3_0042               17.22000      100.0  head
 mel_3_0043               17.22000      100.0  head
 mel_3_0044               17.22000      100.0  head
 mel_3_0045               17.22000      100.0  head
 mel_3_0046               17.22000      100.0  head
 mel_3_0047               17.22000      100.0  head
 mel_3_0048               17.22000      100.0  head
 mel_3_0049               17.22000      100.0  head
 mel_3_0050               17.39000      100.0  head
 mel_3_0051               17.75000      100.0  head
 mel_3_0052               17.81000      100.0  head
 mel_3_0053               18.06000      100.0  head
 mel_3_0054               17.75000      100.0  head
 mel_3_0055               17.85000      100.0  head
 mel_3_0056               17.57000      100.0  head
 mel_3_0057               17.21000      100.0  head
 mel_3_0058               17.22000      100.0  head
 mel_3_0059               17.35000      100.0  head
 mel_3_0060               17.22000      100.0  head
 mel_4_0001               16.85000      100.0  head
 mel_4_0002               16.96000      100.0  head
 mel_4_0003               16.72000      100.0  head
 mel_4_0004               16.88000      100.0  head
 mel_4_0005               17.12000      100.0  head
 mel_4_0006               16.63000      100.0  head
 mel_4_0007               16.62000      100.0  head
 mel_4_0008               17.07000      100.0  head
 mel_4_0009               16.72000      100.0  head
 mel_4_0010               16.32000      100.0  head
 mel_4_0011               16.26000      100.0  head
 mel_4_0012               16.70000      100.0  head
 mel_4_0013               16.50000      100.0  head
 mel_4_0014               16.03000      100.0  head
 mel_4_0015               15.80000      100.0  head
 mel_4_0016               15.70000      100.0  head
 mel_4_0017               15.73000      100.0  head
 mel_4_0018               15.83000      100.0  head
 mel_4_0019               15.93000      100.0  head
 mel_4_0020               16.06000      100.0  head
 mel_4_0021               16.14000      100.0  head
 mel_4_0022               16.42000      100.0  head
 mel_4_0023               16.74000      100.0  head
 mel_4_0024               17.15000      100.0  head
 mel_4_0025               16.84000      100.0  head
 mel_4_0026               17.44000      100.0  head
 mel_4_0027               17.07000      100.0  head
 mel_4_0028               17.20000      100.0  head
 mel_4_0029               16.90000      100.0  head
 mel_4_0030               16.85000      100.0  head
 mel_4_0031               16.83000      100.0  head
 mel_4_0032               16.87000      100.0  head
 mel_4_0033               16.86000      100.0  head
 mel_4_0034               16.84000      100.0  head
 mel_4_0035               16.84000      100.0  head
 mel_4_0036               16.85000      100.0  head
 mel_4_0037               16.79000      100.0  head
 mel_4_0038               16.81000      100.0  head
 mel_4_0039               16.81000      100.0  head
 mel_4_0040               16.82000      100.0  head
 mel_4_0041               16.83000      100.0  head
 mel_4_0042               16.80000      100.0  head
 mel_4_0043               16.78000      100.0  head
 mel_4_0044               16.76000      100.0  head
 mel_4_0045               16.78000      100.0  head
 mel_4_0046               16.76000      100.0  head
 mel_4_0047               16.73000      100.0  head
 mel_4_0048               16.71000      100.0  head
 mel_4_0049               16.70000      100.0  head
 mel_4_0050               16.73000      100.0  head
 mel_4_0051               16.70000      100.0  head
 mel_4_0052               16.66000      100.0  head
 mel_4_0053               16.64000      100.0  head
 mel_4_0054               16.62000      100.0  head
 mel_4_0055               16.61000      100.0  head
 mel_4_0056               16.61000      100.0  head
 mel_4_0057               16.59000      100.0  head
 mel_4_0058               16.57000      100.0  head
 mel_4_0059               16.54000      100.0  head
 mel_4_0060               16.54000      100.0  head
 mel_4_0061               16.53000      100.0  head
 mel_4_0062               16.56000      100.0  head
 mel_4_0063               16.54000      100.0  head
 mel_4_0064               16.51000      100.0  head
 mel_4_0065               16.51000      100.0  head
 mel_4_0066               16.48000      100.0  head
 mel_4_0067               16.49000      100.0  head
 mel_4_0068               16.49000      100.0  head
 mel_4_0069               16.54000      100.0  head
 mel_4_0070               16.48000      100.0  head
 mel_4_0071               16.46000      100.0  head
 mel_4_0072               16.46000      100.0  head
 mel_4_0073               16.45000      100.0  head
 mel_4_0074               16.45000      100.0  head
 mel_4_0075               16.48000      100.0  head
 mel_4_0076               16.53000      100.0  head
 mel_4_0077               16.58000      100.0  head
 mel_4_0078               16.60000      100.0  head
 mel_4_0079               16.58000      100.0  head
 mel_4_0080               16.59000      100.0  head
 mel_4_0081               16.59000      100.0  head
 mel_4_0082               16.58000      100.0  head
 mel_4_0083               16.60000      100.0  head
 mel_4_0084               16.53000      100.0  head
 mel_4_0085               16.53000      100.0  head
 mel_4_0086               16.50000      100.0  head
 mel_4_0087               16.47000      100.0  head
 mel_4_0088               16.45000      100.0  head
 mel_4_0089               16.45000      100.0  head
 mel_4_0090               16.43000      100.0  head
 mel_4_0091               16.40000      100.0  head
 mel_4_0092               16.36000      100.0  head
 mel_4_0093               16.34000      100.0  head
 mel_4_0094               16.33000      100.0  head
 mel_4_0095               16.30000      100.0  head
 mel_4_0096               16.35000      100.0  head
 mel_4_0097               16.26000      100.0  head
 mel_4_0098               16.24000      100.0  head
 mel_4_0099               16.21000      100.0  head
 mel_4_0100               16.21000      100.0  head
 mel_4_0101               16.17000      100.0  head
 mel_4_0102               16.18000      100.0  head
 mel_4_0103               16.13000      100.0  head
 mel_4_0104               16.12000      100.0  head
 mel_4_0105               16.11000      100.0  head
 mel_4_0106               16.13000      100.0  head
 mel_4_0107               16.17000      100.0  head
 mel_4_0108               16.18000      100.0  head
 mel_4_0109               16.13000      100.0  head
 mel_4_0110               16.12000      100.0  head
 mel_4_0111               16.16000      100.0  head
 mel_4_0112               16.10000      100.0  head
 mel_4_0113               16.11000      100.0  head
 mel_4_0114               16.11000      100.0  head
 mel_4_0115               16.12000      100.0  head
 mel_4_0116               16.11000      100.0  head
 mel_4_0117               16.10000      100.0  head
 mel_4_0118               16.11000      100.0  head
 mel_4_0119               16.10000      100.0  head
 mel_4_0120               16.09000      100.0  head
 mel_4_0121               16.10000      100.0  head
 mel_4_0122               16.06000      100.0  head
 mel_4_0123               16.04000      100.0  head
 mel_4_0124               16.08000      100.0  head
 mel_4_0125               16.03000      100.0  head
 mel_4_0126               16.01000      100.0  head
 mel_4_0127               15.98000      100.0  head
 mel_4_0128               15.98000      100.0  head
 mel_4_0129               15.96000      100.0  head
 mel_4_0130               15.94000      100.0  head
 mel_4_0131               15.92000      100.0  head
 mel_4_0132               15.91000      100.0  head
 mel_4_0133               15.88000      100.0  head
 mel_4_0134               15.86000      100.0  head
 mel_4_0135               15.85000      100.0  head
 mel_4_0136               15.84000      100.0  head
 mel_4_0137               15.81000      100.0  head
 mel_4_0138               15.80000      100.0  head
 mel_4_0139               15.84000      100.0  head
 mel_4_0140               15.83000      100.0  head
 mel_4_0141               15.84000      100.0  head
 mel_4_0142               15.93000      100.0  head
 mel_4_0143               16.25000      100.0  head
 mel_4_0144               16.23000      100.0  head
 mel_4_0145               16.20000      100.0  head
 mel_4_0146               16.18000      100.0  head
 mel_4_0147               16.17000      100.0  head
 mel_4_0148               16.12000      100.0  head
 mel_4_0149               16.04000      100.0  head
 mel_4_0150               16.01000      100.0  head
 mel_4_0151               16.01000      100.0  head
 mel_4_0152               15.96000      100.0  head
 mel_4_0153               15.98000      100.0  head
 mel_4_0154               15.95000      100.0  head
 mel_4_0155               15.94000      100.0  head
 mel_4_0156               15.92000      100.0  head
 mel_4_0157               15.91000      100.0  head
 mel_4_0158               15.90000      100.0  head
 mel_4_0159               15.87000      100.0  head
 mel_4_0160               15.85000      100.0  head
 mel_4_0161               15.84000      100.0  head
 mel_4_0162               15.83000      100.0  head
 mel_4_0163               15.81000      100.0  head
 mel_4_0164               15.81000      100.0  head
 mel_4_0165               15.77000      100.0  head
 mel_4_0166               15.75000      100.0  head
 mel_4_0167               15.75000      100.0  head
 mel_4_0168               15.74000      100.0  head
 mel_4_0169               15.77000      100.0  head
 mel_4_0170               15.75000      100.0  head
 mel_4_0171               15.76000      100.0  head
 mel_4_0172               15.72000      100.0  head
 mel_4_0173               15.71000      100.0  head
 mel_4_0174               15.68000      100.0  head
 mel_4_0175               15.67000      100.0  head
 mel_4_0176               15.67000      100.0  head
 mel_4_0177               15.65000      100.0  head
 mel_4_0178               15.63000      100.0  head
 mel_4_0179               15.62000      100.0  head
 mel_4_0180               15.61000      100.0  head
 mel_4_0181               15.61000      100.0  head
 mel_4_0182               15.60000      100.0  head
 mel_4_0183               15.58000      100.0  head
 mel_4_0184               15.57000      100.0  head
 mel_4_0185               15.56000      100.0  head
 mel_4_0186               15.57000      100.0  head
 mel_4_0187               15.58000      100.0  head
 mel_4_0188               15.63000      100.0  head
 mel_4_0189               15.68000      100.0  head
 mel_4_0190               15.70000      100.0  head
 mel_4_0191               15.75000      100.0  head
 mel_4_0192               15.79000      100.0  head
 mel_4_0193               15.81000      100.0  head
 mel_4_0194               15.79000      100.0  head
 mel_4_0195               15.81000      100.0  head
 mel_4_0196               15.80000      100.0  head
 mel_4_0197               15.80000      100.0  head
 mel_4_0198               15.79000      100.0  head
 mel_4_0199               15.79000      100.0  head
 mel_4_0200               15.81000      100.0  head
 mel_4_0201               15.82000      100.0  head
 mel_4_0202               15.84000      100.0  head
 mel_4_0203               15.80000      100.0  head
 mel_4_0204               15.80000      100.0  head
 mel_4_0205               15.80000      100.0  head
 mel_4_0206               15.79000      100.0  head
 mel_4_0207               15.76000      100.0  head
 mel_4_0208               15.73000      100.0  head
 mel_4_0209               15.72000      100.0  head
 mel_4_0210               15.70000      100.0  head
 mel_4_0211               15.68000      100.0  head
 mel_4_0212               15.67000      100.0  head
 mel_4_0213               15.66000      100.0  head
 mel_4_0214               15.65000      100.0  head
 mel_4_0215               15.66000      100.0  head
 mel_4_0216               15.68000      100.0  head
 mel_4_0217               15.69000      100.0  head
 mel_4_0218               15.70000      100.0  head
 mel_4_0219               15.73000      100.0  head
 mel_4_0220               15.77000      100.0  head
 mel_4_0221               15.84000      100.0  head
 mel_4_0222               15.90000      100.0  head
 mel_4_0223               15.93000      100.0  head
 mel_4_0224               15.95000      100.0  head
 mel_4_0225               16.12000      100.0  head
 mel_4_0226               16.18000      100.0  head
 mel_4_0227               16.17000      100.0  head
 mel_4_0228               16.17000      100.0  head
 mel_4_0229               16.20000      100.0  head
 mel_4_0230               16.22000      100.0  head
 mel_4_0231               16.03000      100.0  head
 mel_4_0232               16.10000      100.0  head
 mel_4_0233               16.08000      100.0  head
 mel_4_0234               16.11000      100.0  head
 mel_4_0235               16.12000      100.0  head
 mel_4_0236               16.05000      100.0  head
 mel_4_0237               16.04000      100.0  head
 mel_4_0238               16.07000      100.0  head
 mel_4_0239               16.09000      100.0  head
 mel_4_0240               16.19000      100.0  head
 mel_4_0241               16.26000      100.0  head
 mel_4_0242               16.37000      100.0  head
 mel_4_0243               16.40000      100.0  head
 mel_4_0244               16.54000      100.0  head
 mel_4_0245               16.53000      100.0  head
 mel_4_0246               16.68000      100.0  head
 mel_4_0247               16.80000      100.0  head
 mel_4_0248               16.81000      100.0  head
 mel_4_0249               16.81000      100.0  head
 mel_4_0250               16.83000      100.0  head
 mel_4_0251               16.79000      100.0  head
 mel_4_0252               16.83000      100.0  head
 mel_4_0253               16.87000      100.0  head
 mel_4_0254               16.88000      100.0  head
 mel_4_0255               16.89000      100.0  head
 mel_4_0256               16.89000      100.0  head
 mel_4_0257               16.85000      100.0  head
 mel_4_0258               16.94000      100.0  head
 mel_4_0259               16.94000      100.0  head
 mel_4_0260               16.95000      100.0  head
 mel_4_0261               16.91000      100.0  head
 mel_4_0262               16.88000      100.0  head
 mel_4_0263               16.85000      100.0  head
 mel_4_0264               16.83000      100.0  head
 mel_4_0265               16.83000      100.0  head
 mel_4_0266               16.81000      100.0  head
 mel_4_0267               16.82000      100.0  head
 mel_4_0268               16.79000      100.0  head
 mel_4_0269               16.76000      100.0  head
 mel_4_0270               16.75000      100.0  head
 mel_4_0271               16.76000      100.0  head
 mel_4_0272               16.82000      100.0  head
 mel_4_0273               16.75000      100.0  head
 mel_4_0274               16.71000      100.0  head
 mel_4_0275               16.70000      100.0  head
 mel_4_0276               16.68000      100.0  head
 mel_4_0277               16.66000      100.0  head
 mel_4_0278               16.65000      100.0  head
 mel_4_0279               16.65000      100.0  head
 mel_4_0280               16.66000      100.0  head
 mel_4_0281               16.65000      100.0  head