# File generated by Flopy version 3.6.0 on 04/30/2024 at 18:05:15.
BEGIN options
  TIME_UNITS  days
  ATS6  FILEIN  Gondebeek.tdis.ats
END options

BEGIN dimensions
  NPER  2557
END dimensions

BEGIN perioddata
       1.00000000  18       2.00000000
       1.00000000  18       2.00000000
       1.00000000  18       2.00000000
       1.00000000  18       2.00000000
       1.00000000  18       2.00000000
       1.00000000  18       2.00000000
       1.00000000  18       2.00000000
       1.00000000  18       2.00000000
       1.00000000  18       2.00000000
       1.00000000  18       2.00000000
       1.00000000  18       2.00000000
       1.00000000  18       2.00000000
       1.00000000  18       2.00000000
       1.00000000  18       2.00000000
       1.00000000  18       2.00000000
       1.00000000  18       2.00000000
       1.00000000  18       2.00000000
       1.00000000  18       2.00000000
       1.00000000  18       2.00000000
       1.00000000  18       2.00000000
       1.00000000  18       2.00000000
       1.00000000  18       2.00000000
       1.00000000  18       2.00000000
       1.00000000  18       2.00000000
       1.00000000  18       2.00000000
       1.00000000  18       2.00000000
       1.00000000  18       2.00000000
       1.00000000  18       2.00000000
       1.00000000  18       2.00000000
       1.00000000  18       2.00000000
       1.00000000  18       2.00000000
       1.00000000  18       2.00000000
       1.00000000  18       2.00000000
       1.00000000  18       2.00000000
       1.00000000  18       2.00000000
       1.00000000  18       2.00000000
       1.00000000  18       2.00000000
       1.00000000  18       2.00000000
       1.00000000  18       2.00000000
       1.00000000  18       2.00000000
       1.00000000  18       2.00000000
       1.00000000  18       2.00000000
       1.00000000  18       2.00000000
       1.00000000  18       2.00000000
       1.00000000  18       2.00000000
       1.00000000  18       2.00000000
       1.00000000  18       2.00000000
       1.00000000  18       2.00000000
       1.00000000  18       2.00000000
       1.00000000  18       2.00000000
       1.00000000  18       2.00000000
       1.00000000  18       2.00000000
       1.00000000  18       2.00000000
       1.00000000  18       2.00000000
       1.00000000  18       2.00000000
       1.00000000  18       2.00000000
       1.00000000  18       2.00000000
       1.00000000  18       2.00000000
       1.00000000  18       2.00000000
       1.00000000  18       2.00000000
       1.00000000  18       2.00000000
       1.00000000  18       2.00000000
       1.00000000  18       2.00000000
       1.00000000  18       2.00000000
       1.00000000  18       2.00000000
       1.00000000  18       2.00000000
       1.00000000  18       2.00000000
       1.00000000  18       2.00000000
       1.00000000  18       2.00000000
       1.00000000  18       2.00000000
       1.00000000  18       2.00000000
       1.00000000  18       2.00000000
       1.00000000  18       2.00000000
       1.00000000  18       2.00000000
       1.00000000  18       2.00000000
       1.00000000  18       2.00000000
       1.00000000  18       2.00000000
       1.00000000  18       2.00000000
       1.00000000  18       2.00000000
       1.00000000  18       2.00000000
       1.00000000  18       2.00000000
       1.00000000  18       2.00000000
       1.00000000  18       2.00000000
       1.00000000  18       2.00000000
       1.00000000  18       2.00000000
       1.00000000  18       2.00000000
       1.00000000  18       2.00000000
       1.00000000  18       2.00000000
       1.00000000  18       2.00000000
       1.00000000  18       2.00000000
       1.00000000  18       2.00000000
       1.00000000  18       2.00000000
       1.00000000  18       2.00000000
       1.00000000  18       2.00000000
       1.00000000  18       2.00000000
       1.00000000  18       2.00000000
       1.00000000  18       2.00000000
       1.00000000  18       2.00000000
       1.00000000  18       2.00000000
       1.00000000  18       2.00000000
       1.00000000  18       2.00000000
       1.00000000  18       2.00000000
       1.00000000  18       2.00000000
       1.00000000  18       2.00000000
       1.00000000  18       2.00000000
       1.00000000  18       2.00000000
       1.00000000  18       2.00000000
       1.00000000  18       2.00000000
       1.00000000  18       2.00000000
       1.00000000  18       2.00000000
       1.00000000  18       2.00000000
       1.00000000  18       2.00000000
       1.00000000  18       2.00000000
       1.00000000  18       2.00000000
       1.00000000  18       2.00000000
       1.00000000  18       2.00000000
       1.00000000  18       2.00000000
       1.00000000  18       2.00000000
       1.00000000  18       2.00000000
       1.00000000  18       2.00000000
       1.00000000  18       2.00000000
       1.00000000  18       2.00000000
       1.00000000  18       2.00000000
       1.00000000  18       2.00000000
       1.00000000  18       2.00000000
       1.00000000  18       2.00000000
       1.00000000  18       2.00000000
       1.00000000  18       2.00000000
       1.00000000  18       2.00000000
       1.00000000  18       2.00000000
       1.00000000  18       2.00000000
       1.00000000  18       2.00000000
       1.00000000  18       2.00000000
       1.00000000  18       2.00000000
       1.00000000  18       2.00000000
       1.00000000  18       2.00000000
       1.00000000  18       2.00000000
       1.00000000  18       2.00000000
       1.00000000  18       2.00000000
       1.00000000  18       2.00000000
       1.00000000  18       2.00000000
       1.00000000  18       2.00000000
       1.00000000  18       2.00000000
       1.00000000  18       2.00000000
       1.00000000  18       2.00000000
       1.00000000  18       2.00000000
       1.00000000  18       2.00000000
       1.00000000  18       2.00000000
       1.00000000  18       2.00000000
       1.00000000  18       2.00000000
       1.00000000  18       2.00000000
       1.00000000  18       2.00000000
       1.00000000  18       2.00000000
       1.00000000  18       2.00000000
       1.00000000  18       2.00000000
       1.00000000  18       2.00000000
       1.00000000  18       2.00000000
       1.00000000  18       2.00000000
       1.00000000  18       2.00000000
       1.00000000  18       2.00000000
       1.00000000  18       2.00000000
       1.00000000  18       2.00000000
       1.00000000  18       2.00000000
       1.00000000  18       2.00000000
       1.00000000  18       2.00000000
       1.00000000  18       2.00000000
       1.00000000  18       2.00000000
       1.00000000  18       2.00000000
       1.00000000  18       2.00000000
       1.00000000  18       2.00000000
       1.00000000  18       2.00000000
       1.00000000  18       2.00000000
       1.00000000  18       2.00000000
       1.00000000  18       2.00000000
       1.00000000  18       2.00000000
       1.00000000  18       2.00000000
       1.00000000  18       2.00000000
       1.00000000  18       2.00000000
       1.00000000  18       2.00000000
       1.00000000  18       2.00000000
       1.00000000  18       2.00000000
       1.00000000  18       2.00000000
       1.00000000  18       2.00000000
       1.00000000  18       2.00000000
       1.00000000  18       2.00000000
       1.00000000  18       2.00000000
       1.00000000  18       2.00000000
       1.00000000  18       2.00000000
       1.00000000  18       2.00000000
       1.00000000  18       2.00000000
       1.00000000  18       2.00000000
       1.00000000  18       2.00000000
       1.00000000  18       2.00000000
       1.00000000  18       2.00000000
       1.00000000  18       2.00000000
       1.00000000  18       2.00000000
       1.00000000  18       2.00000000
       1.00000000  18       2.00000000
       1.00000000  18       2.00000000
       1.00000000  18       2.00000000
       1.00000000  18       2.00000000
       1.00000000  18       2.00000000
       1.00000000  18       2.00000000
       1.00000000  18       2.00000000
       1.00000000  18       2.00000000
       1.00000000  18       2.00000000
       1.00000000  18       2.00000000
       1.00000000  18       2.00000000
       1.00000000  18       2.00000000
       1.00000000  18       2.00000000
       1.00000000  18       2.00000000
       1.00000000  18       2.00000000
       1.00000000  18       2.00000000
       1.00000000  18       2.00000000
       1.00000000  18       2.00000000
       1.00000000  18       2.00000000
       1.00000000  18       2.00000000
       1.00000000  18       2.00000000
       1.00000000  18       2.00000000
       1.00000000  18       2.00000000
       1.00000000  18       2.00000000
       1.00000000  18       2.00000000
       1.00000000  18       2.00000000
       1.00000000  18       2.00000000
       1.00000000  18       2.00000000
       1.00000000  18       2.00000000
       1.00000000  18       2.00000000
       1.00000000  18       2.00000000
       1.00000000  18       2.00000000
       1.00000000  18       2.00000000
       1.00000000  18       2.00000000
       1.00000000  18       2.00000000
       1.00000000  18       2.00000000
       1.00000000  18       2.00000000
       1.00000000  18       2.00000000
       1.00000000  18       2.00000000
       1.00000000  18       2.00000000
       1.00000000  18       2.00000000
       1.00000000  18       2.00000000
       1.00000000  18       2.00000000
       1.00000000  18       2.00000000
       1.00000000  18       2.00000000
       1.00000000  18       2.00000000
       1.00000000  18       2.00000000
       1.00000000  18       2.00000000
       1.00000000  18       2.00000000
       1.00000000  18       2.00000000
       1.00000000  18       2.00000000
       1.00000000  18       2.00000000
       1.00000000  18       2.00000000
       1.00000000  18       2.00000000
       1.00000000  18       2.00000000
       1.00000000  18       2.00000000
       1.00000000  18       2.00000000
       1.00000000  18       2.00000000
       1.00000000  18       2.00000000
       1.00000000  18       2.00000000
       1.00000000  18       2.00000000
       1.00000000  18       2.00000000
       1.00000000  18       2.00000000
       1.00000000  18       2.00000000
       1.00000000  18       2.00000000
       1.00000000  18       2.00000000
       1.00000000  18       2.00000000
       1.00000000  18       2.00000000
       1.00000000  18       2.00000000
       1.00000000  18       2.00000000
       1.00000000  18       2.00000000
       1.00000000  18       2.00000000
       1.00000000  18       2.00000000
       1.00000000  18       2.00000000
       1.00000000  18       2.00000000
       1.00000000  18       2.00000000
       1.00000000  18       2.00000000
       1.00000000  18       2.00000000
       1.00000000  18       2.00000000
       1.00000000  18       2.00000000
       1.00000000  18       2.00000000
       1.00000000  18       2.00000000
       1.00000000  18       2.00000000
       1.00000000  18       2.00000000
       1.00000000  18       2.00000000
       1.00000000  18       2.00000000
       1.00000000  18       2.00000000
       1.00000000  18       2.00000000
       1.00000000  18       2.00000000
       1.00000000  18       2.00000000
       1.00000000  18       2.00000000
       1.00000000  18       2.00000000
       1.00000000  18       2.00000000
       1.00000000  18       2.00000000
       1.00000000  18       2.00000000
       1.00000000  18       2.00000000
       1.00000000  18       2.00000000
       1.00000000  18       2.00000000
       1.00000000  18       2.00000000
       1.00000000  18       2.00000000
       1.00000000  18       2.00000000
       1.00000000  18       2.00000000
       1.00000000  18       2.00000000
       1.00000000  18       2.00000000
       1.00000000  18       2.00000000
       1.00000000  18       2.00000000
       1.00000000  18       2.00000000
       1.00000000  18       2.00000000
       1.00000000  18       2.00000000
       1.00000000  18       2.00000000
       1.00000000  18       2.00000000
       1.00000000  18       2.00000000
       1.00000000  18       2.00000000
       1.00000000  18       2.00000000
       1.00000000  18       2.00000000
       1.00000000  18       2.00000000
       1.00000000  18       2.00000000
       1.00000000  18       2.00000000
       1.00000000  18       2.00000000
       1.00000000  18       2.00000000
       1.00000000  18       2.00000000
       1.00000000  18       2.00000000
       1.00000000  18       2.00000000
       1.00000000  18       2.00000000
       1.00000000  18       2.00000000
       1.00000000  18       2.00000000
       1.00000000  18       2.00000000
       1.00000000  18       2.00000000
       1.00000000  18       2.00000000
       1.00000000  18       2.00000000
       1.00000000  18       2.00000000
       1.00000000  18       2.00000000
       1.00000000  18       2.00000000
       1.00000000  18       2.00000000
       1.00000000  18       2.00000000
       1.00000000  18       2.00000000
       1.00000000  18       2.00000000
       1.00000000  18       2.00000000
       1.00000000  18       2.00000000
       1.00000000  18       2.00000000
       1.00000000  18       2.00000000
       1.00000000  18       2.00000000
       1.00000000  18       2.00000000
       1.00000000  18       2.00000000
       1.00000000  18       2.00000000
       1.00000000  18       2.00000000
       1.00000000  18       2.00000000
       1.00000000  18       2.00000000
       1.00000000  18       2.00000000
       1.00000000  18       2.00000000
       1.00000000  18       2.00000000
       1.00000000  18       2.00000000
       1.00000000  18       2.00000000
       1.00000000  18       2.00000000
       1.00000000  18       2.00000000
       1.00000000  18       2.00000000
       1.00000000  18       2.00000000
       1.00000000  18       2.00000000
       1.00000000  18       2.00000000
       1.00000000  18       2.00000000
       1.00000000  18       2.00000000
       1.00000000  18       2.00000000
       1.00000000  18       2.00000000
       1.00000000  18       2.00000000
       1.00000000  18       2.00000000
       1.00000000  18       2.00000000
       1.00000000  18       2.00000000
       1.00000000  18       2.00000000
       1.00000000  18       2.00000000
       1.00000000  18       2.00000000
       1.00000000  18       2.00000000
       1.00000000  18       2.00000000
       1.00000000  18       2.00000000
       1.00000000  18       2.00000000
       1.00000000  18       2.00000000
       1.00000000  18       2.00000000
       1.00000000  18       2.00000000
       1.00000000  18       2.00000000
       1.00000000  18       2.00000000
       1.00000000  18       2.00000000
       1.00000000  18       2.00000000
       1.00000000  18       2.00000000
       1.00000000  18       2.00000000
       1.00000000  18       2.00000000
       1.00000000  18       2.00000000
       1.00000000  18       2.00000000
       1.00000000  18       2.00000000
       1.00000000  18       2.00000000
       1.00000000  18       2.00000000
       1.00000000  18       2.00000000
       1.00000000  18       2.00000000
       1.00000000  18       2.00000000
       1.00000000  18       2.00000000
       1.00000000  18       2.00000000
       1.00000000  18       2.00000000
       1.00000000  18       2.00000000
       1.00000000  18       2.00000000
       1.00000000  18       2.00000000
       1.00000000  18       2.00000000
       1.00000000  18       2.00000000
       1.00000000  18       2.00000000
       1.00000000  18       2.00000000
       1.00000000  18       2.00000000
       1.00000000  18       2.00000000
       1.00000000  18       2.00000000
       1.00000000  18       2.00000000
       1.00000000  18       2.00000000
       1.00000000  18       2.00000000
       1.00000000  18       2.00000000
       1.00000000  18       2.00000000
       1.00000000  18       2.00000000
       1.00000000  18       2.00000000
       1.00000000  18       2.00000000
       1.00000000  18       2.00000000
       1.00000000  18       2.00000000
       1.00000000  18       2.00000000
       1.00000000  18       2.00000000
       1.00000000  18       2.00000000
       1.00000000  18       2.00000000
       1.00000000  18       2.00000000
       1.00000000  18       2.00000000
       1.00000000  18       2.00000000
       1.00000000  18       2.00000000
       1.00000000  18       2.00000000
       1.00000000  18       2.00000000
       1.00000000  18       2.00000000
       1.00000000  18       2.00000000
       1.00000000  18       2.00000000
       1.00000000  18       2.00000000
       1.00000000  18       2.00000000
       1.00000000  18       2.00000000
       1.00000000  18       2.00000000
       1.00000000  18       2.00000000
       1.00000000  18       2.00000000
       1.00000000  18       2.00000000
       1.00000000  18       2.00000000
       1.00000000  18       2.00000000
       1.00000000  18       2.00000000
       1.00000000  18       2.00000000
       1.00000000  18       2.00000000
       1.00000000  18       2.00000000
       1.00000000  18       2.00000000
       1.00000000  18       2.00000000
       1.00000000  18       2.00000000
       1.00000000  18       2.00000000
       1.00000000  18       2.00000000
       1.00000000  18       2.00000000
       1.00000000  18       2.00000000
       1.00000000  18       2.00000000
       1.00000000  18       2.00000000
       1.00000000  18       2.00000000
       1.00000000  18       2.00000000
       1.00000000  18       2.00000000
       1.00000000  18       2.00000000
       1.00000000  18       2.00000000
       1.00000000  18       2.00000000
       1.00000000  18       2.00000000
       1.00000000  18       2.00000000
       1.00000000  18       2.00000000
       1.00000000  18       2.00000000
       1.00000000  18       2.00000000
       1.00000000  18       2.00000000
       1.00000000  18       2.00000000
       1.00000000  18       2.00000000
       1.00000000  18       2.00000000
       1.00000000  18       2.00000000
       1.00000000  18       2.00000000
       1.00000000  18       2.00000000
       1.00000000  18       2.00000000
       1.00000000  18       2.00000000
       1.00000000  18       2.00000000
       1.00000000  18       2.00000000
       1.00000000  18       2.00000000
       1.00000000  18       2.00000000
       1.00000000  18       2.00000000
       1.00000000  18       2.00000000
       1.00000000  18       2.00000000
       1.00000000  18       2.00000000
       1.00000000  18       2.00000000
       1.00000000  18       2.00000000
       1.00000000  18       2.00000000
       1.00000000  18       2.00000000
       1.00000000  18       2.00000000
       1.00000000  18       2.00000000
       1.00000000  18       2.00000000
       1.00000000  18       2.00000000
       1.00000000  18       2.00000000
       1.00000000  18       2.00000000
       1.00000000  18       2.00000000
       1.00000000  18       2.00000000
       1.00000000  18       2.00000000
       1.00000000  18       2.00000000
       1.00000000  18       2.00000000
       1.00000000  18       2.00000000
       1.00000000  18       2.00000000
       1.00000000  18       2.00000000
       1.00000000  18       2.00000000
       1.00000000  18       2.00000000
       1.00000000  18       2.00000000
       1.00000000  18       2.00000000
       1.00000000  18       2.00000000
       1.00000000  18       2.00000000
       1.00000000  18       2.00000000
       1.00000000  18       2.00000000
       1.00000000  18       2.00000000
       1.00000000  18       2.00000000
       1.00000000  18       2.00000000
       1.00000000  18       2.00000000
       1.00000000  18       2.00000000
       1.00000000  18       2.00000000
       1.00000000  18       2.00000000
       1.00000000  18       2.00000000
       1.00000000  18       2.00000000
       1.00000000  18       2.00000000
       1.00000000  18       2.00000000
       1.00000000  18       2.00000000
       1.00000000  18       2.00000000
       1.00000000  18       2.00000000
       1.00000000  18       2.00000000
       1.00000000  18       2.00000000
       1.00000000  18       2.00000000
       1.00000000  18       2.00000000
       1.00000000  18       2.00000000
       1.00000000  18       2.00000000
       1.00000000  18       2.00000000
       1.00000000  18       2.00000000
       1.00000000  18       2.00000000
       1.00000000  18       2.00000000
       1.00000000  18       2.00000000
       1.00000000  18       2.00000000
       1.00000000  18       2.00000000
       1.00000000  18       2.00000000
       1.00000000  18       2.00000000
       1.00000000  18       2.00000000
       1.00000000  18       2.00000000
       1.00000000  18       2.00000000
       1.00000000  18       2.00000000
       1.00000000  18       2.00000000
       1.00000000  18       2.00000000
       1.00000000  18       2.00000000
       1.00000000  18       2.00000000
       1.00000000  18       2.00000000
       1.00000000  18       2.00000000
       1.00000000  18       2.00000000
       1.00000000  18       2.00000000
       1.00000000  18       2.00000000
       1.00000000  18       2.00000000
       1.00000000  18       2.00000000
       1.00000000  18       2.00000000
       1.00000000  18       2.00000000
       1.00000000  18       2.00000000
       1.00000000  18       2.00000000
       1.00000000  18       2.00000000
       1.00000000  18       2.00000000
       1.00000000  18       2.00000000
       1.00000000  18       2.00000000
       1.00000000  18       2.00000000
       1.00000000  18       2.00000000
       1.00000000  18       2.00000000
       1.00000000  18       2.00000000
       1.00000000  18       2.00000000
       1.00000000  18       2.00000000
       1.00000000  18       2.00000000
       1.00000000  18       2.00000000
       1.00000000  18       2.00000000
       1.00000000  18       2.00000000
       1.00000000  18       2.00000000
       1.00000000  18       2.00000000
       1.00000000  18       2.00000000
       1.00000000  18       2.00000000
       1.00000000  18       2.00000000
       1.00000000  18       2.00000000
       1.00000000  18       2.00000000
       1.00000000  18       2.00000000
       1.00000000  18       2.00000000
       1.00000000  18       2.00000000
       1.00000000  18       2.00000000
       1.00000000  18       2.00000000
       1.00000000  18       2.00000000
       1.00000000  18       2.00000000
       1.00000000  18       2.00000000
       1.00000000  18       2.00000000
       1.00000000  18       2.00000000
       1.00000000  18       2.00000000
       1.00000000  18       2.00000000
       1.00000000  18       2.00000000
       1.00000000  18       2.00000000
       1.00000000  18       2.00000000
       1.00000000  18       2.00000000
       1.00000000  18       2.00000000
       1.00000000  18       2.00000000
       1.00000000  18       2.00000000
       1.00000000  18       2.00000000
       1.00000000  18       2.00000000
       1.00000000  18       2.00000000
       1.00000000  18       2.00000000
       1.00000000  18       2.00000000
       1.00000000  18       2.00000000
       1.00000000  18       2.00000000
       1.00000000  18       2.00000000
       1.00000000  18       2.00000000
       1.00000000  18       2.00000000
       1.00000000  18       2.00000000
       1.00000000  18       2.00000000
       1.00000000  18       2.00000000
       1.00000000  18       2.00000000
       1.00000000  18       2.00000000
       1.00000000  18       2.00000000
       1.00000000  18       2.00000000
       1.00000000  18       2.00000000
       1.00000000  18       2.00000000
       1.00000000  18       2.00000000
       1.00000000  18       2.00000000
       1.00000000  18       2.00000000
       1.00000000  18       2.00000000
       1.00000000  18       2.00000000
       1.00000000  18       2.00000000
       1.00000000  18       2.00000000
       1.00000000  18       2.00000000
       1.00000000  18       2.00000000
       1.00000000  18       2.00000000
       1.00000000  18       2.00000000
       1.00000000  18       2.00000000
       1.00000000  18       2.00000000
       1.00000000  18       2.00000000
       1.00000000  18       2.00000000
       1.00000000  18       2.00000000
       1.00000000  18       2.00000000
       1.00000000  18       2.00000000
       1.00000000  18       2.00000000
       1.00000000  18       2.00000000
       1.00000000  18       2.00000000
       1.00000000  18       2.00000000
       1.00000000  18       2.00000000
       1.00000000  18       2.00000000
       1.00000000  18       2.00000000
       1.00000000  18       2.00000000
       1.00000000  18       2.00000000
       1.00000000  18       2.00000000
       1.00000000  18       2.00000000
       1.00000000  18       2.00000000
       1.00000000  18       2.00000000
       1.00000000  18       2.00000000
       1.00000000  18       2.00000000
       1.00000000  18       2.00000000
       1.00000000  18       2.00000000
       1.00000000  18       2.00000000
       1.00000000  18       2.00000000
       1.00000000  18       2.00000000
       1.00000000  18       2.00000000
       1.00000000  18       2.00000000
       1.00000000  18       2.00000000
       1.00000000  18       2.00000000
       1.00000000  18       2.00000000
       1.00000000  18       2.00000000
       1.00000000  18       2.00000000
       1.00000000  18       2.00000000
       1.00000000  18       2.00000000
       1.00000000  18       2.00000000
       1.00000000  18       2.00000000
       1.00000000  18       2.00000000
       1.00000000  18       2.00000000
       1.00000000  18       2.00000000
       1.00000000  18       2.00000000
       1.00000000  18       2.00000000
       1.00000000  18       2.00000000
       1.00000000  18       2.00000000
       1.00000000  18       2.00000000
       1.00000000  18       2.00000000
       1.00000000  18       2.00000000
       1.00000000  18       2.00000000
       1.00000000  18       2.00000000
       1.00000000  18       2.00000000
       1.00000000  18       2.00000000
       1.00000000  18       2.00000000
       1.00000000  18       2.00000000
       1.00000000  18       2.00000000
       1.00000000  18       2.00000000
       1.00000000  18       2.00000000
       1.00000000  18       2.00000000
       1.00000000  18       2.00000000
       1.00000000  18       2.00000000
       1.00000000  18       2.00000000
       1.00000000  18       2.00000000
       1.00000000  18       2.00000000
       1.00000000  18       2.00000000
       1.00000000  18       2.00000000
       1.00000000  18       2.00000000
       1.00000000  18       2.00000000
       1.00000000  18       2.00000000
       1.00000000  18       2.00000000
       1.00000000  18       2.00000000
       1.00000000  18       2.00000000
       1.00000000  18       2.00000000
       1.00000000  18       2.00000000
       1.00000000  18       2.00000000
       1.00000000  18       2.00000000
       1.00000000  18       2.00000000
       1.00000000  18       2.00000000
       1.00000000  18       2.00000000
       1.00000000  18       2.00000000
       1.00000000  18       2.00000000
       1.00000000  18       2.00000000
       1.00000000  18       2.00000000
       1.00000000  18       2.00000000
       1.00000000  18       2.00000000
       1.00000000  18       2.00000000
       1.00000000  18       2.00000000
       1.00000000  18       2.00000000
       1.00000000  18       2.00000000
       1.00000000  18       2.00000000
       1.00000000  18       2.00000000
       1.00000000  18       2.00000000
       1.00000000  18       2.00000000
       1.00000000  18       2.00000000
       1.00000000  18       2.00000000
       1.00000000  18       2.00000000
       1.00000000  18       2.00000000
       1.00000000  18       2.00000000
       1.00000000  18       2.00000000
       1.00000000  18       2.00000000
       1.00000000  18       2.00000000
       1.00000000  18       2.00000000
       1.00000000  18       2.00000000
       1.00000000  18       2.00000000
       1.00000000  18       2.00000000
       1.00000000  18       2.00000000
       1.00000000  18       2.00000000
       1.00000000  18       2.00000000
       1.00000000  18       2.00000000
       1.00000000  18       2.00000000
       1.00000000  18       2.00000000
       1.00000000  18       2.00000000
       1.00000000  18       2.00000000
       1.00000000  18       2.00000000
       1.00000000  18       2.00000000
       1.00000000  18       2.00000000
       1.00000000  18       2.00000000
       1.00000000  18       2.00000000
       1.00000000  18       2.00000000
       1.00000000  18       2.00000000
       1.00000000  18       2.00000000
       1.00000000  18       2.00000000
       1.00000000  18       2.00000000
       1.00000000  18       2.00000000
       1.00000000  18       2.00000000
       1.00000000  18       2.00000000