# File generated by Flopy version 3.6.0 on 04/30/2024 at 18:05:40.
BEGIN options
  SAVE_FLOWS
END options

BEGIN griddata
  iconvert  LAYERED
    OPEN/CLOSE  'Gondebeek.sto_iconvert_layer1.txt'  FACTOR  1
    OPEN/CLOSE  'Gondebeek.sto_iconvert_layer2.txt'  FACTOR  1
    OPEN/CLOSE  'Gondebeek.sto_iconvert_layer3.txt'  FACTOR  1
    OPEN/CLOSE  'Gondebeek.sto_iconvert_layer4.txt'  FACTOR  1
  ss  LAYERED
    OPEN/CLOSE  'Gondebeek.sto_ss_layer1.txt'  FACTOR  1.0
    OPEN/CLOSE  'Gondebeek.sto_ss_layer2.txt'  FACTOR  1.0
    OPEN/CLOSE  'Gondebeek.sto_ss_layer3.txt'  FACTOR  1.0
    OPEN/CLOSE  'Gondebeek.sto_ss_layer4.txt'  FACTOR  1.0
  sy  LAYERED
    OPEN/CLOSE  'Gondebeek.sto_sy_layer1.txt'  FACTOR  1.0
    OPEN/CLOSE  'Gondebeek.sto_sy_layer2.txt'  FACTOR  1.0
    OPEN/CLOSE  'Gondebeek.sto_sy_layer3.txt'  FACTOR  1.0
    OPEN/CLOSE  'Gondebeek.sto_sy_layer4.txt'  FACTOR  1.0
END griddata

BEGIN period  1
  TRANSIENT
END period  1

