# File generated by Flopy version 3.6.0 on 04/30/2024 at 18:05:15.
BEGIN options
END options

BEGIN timing
  TDIS6  Gondebeek.tdis
END timing

BEGIN models
  gwf6  Gondebeek.nam  gondebeek
END models

BEGIN exchanges
END exchanges

BEGIN solutiongroup  1
  ims6  Gondebeek.ims  gondebeek
END solutiongroup  1

