# File generated by Flopy version 3.6.0 on 03/28/2024 at 12:28:18.
BEGIN options
  SAVE_FLOWS
END options

BEGIN packages
  OC6  Gondebeek_SS.oc  oc
  IC6  Gondebeek_SS.ic  ic
  DIS6  Gondebeek_SS.dis  dis
  NPF6  Gondebeek_SS.npf  npf
  STO6  Gondebeek_SS.sto  sto
  RCH6  Gondebeek_SS.rcha  rcha_0
  RIV6  Gondebeek_SS.riv  riv
  DRN6  Gondebeek_SS.drn  drn
END packages

