# File generated by Flopy version 3.6.0 on 03/05/2024 at 10:49:25.
BEGIN options
  PRINT_OPTION  summary
  COMPLEXITY  simple
END options

