# File generated by Flopy version 3.6.0 on 03/31/2024 at 12:33:14.
BEGIN options
  PRINT_OPTION  summary
  COMPLEXITY  simple
END options

