# File generated by Flopy version 3.6.0 on 03/15/2024 at 10:06:10.
BEGIN options
  PRINT_OPTION  summary
  COMPLEXITY  simple
END options

