# File generated by Flopy version 3.6.0 on 03/05/2024 at 10:49:26.
BEGIN options
  READASARRAYS
END options

BEGIN period  1
  recharge
    INTERNAL  FACTOR  1.0
    6.63406017E-04  6.63406017E-04  6.63406017E-04  6.63406017E-04  6.63406017E-04  6.63406017E-04  6.63406017E-04  6.63406017E-04  6.63406017E-04  6.63406017E-04  6.63406017E-04  6.63406017E-04  6.63406017E-04  6.63406017E-04  6.63406017E-04  6.63406017E-04  6.63406017E-04  6.63406017E-04  6.63406017E-04  6.63406017E-04  6.63406017E-04  6.63406017E-04  6.63406017E-04  6.63406017E-04  6.63406017E-04  6.63406017E-04  6.63406017E-04  6.63406017E-04  6.63406017E-04  6.63406017E-04  6.63406017E-04  6.63406017E-04  6.63406017E-04  6.63406017E-04  6.63406017E-04  6.63406017E-04  6.63406017E-04  6.63406017E-04  6.63406017E-04  6.63406017E-04  6.63406017E-04  6.63406017E-04  6.63406017E-04  6.63406017E-04  6.63406017E-04  6.63406017E-04  6.63406017E-04  6.63406017E-04  6.63406017E-04  6.63406017E-04  6.63406017E-04  6.63406017E-04  6.63406017E-04  6.63406017E-04  6.63406017E-04  6.63406017E-04  6.63406017E-04  6.63406017E-04  6.63406017E-04  6.63406017E-04  6.63406017E-04  6.63406017E-04  6.63406017E-04  6.63406017E-04  6.63406017E-04  6.63406017E-04
    6.63406017E-04  6.63406017E-04  6.63406017E-04  6.63406017E-04  6.63406017E-04  6.63406017E-04  6.63406017E-04  6.63406017E-04  6.63406017E-04  6.63406017E-04  6.63406017E-04  6.63406017E-04  6.63406017E-04  6.63406017E-04  6.63406017E-04  6.63406017E-04  6.63406017E-04  6.63406017E-04  6.63406017E-04  6.63406017E-04  6.63406017E-04  6.63406017E-04  6.63406017E-04  6.63406017E-04  6.63406017E-04  6.63406017E-04  6.63406017E-04  6.63406017E-04  6.63406017E-04  6.63406017E-04  6.63406017E-04  6.63406017E-04  6.63406017E-04  6.63406017E-04  6.63406017E-04  6.63406017E-04  6.63406017E-04  6.63406017E-04  6.63406017E-04  6.63406017E-04  6.63406017E-04  6.63406017E-04  6.63406017E-04  6.63406017E-04  6.63406017E-04  6.63406017E-04  6.63406017E-04  6.63406017E-04  6.63406017E-04  6.63406017E-04  6.63406017E-04  6.63406017E-04  6.63406017E-04  6.63406017E-04  6.63406017E-04  6.63406017E-04  6.63406017E-04  6.63406017E-04  6.63406017E-04  6.63406017E-04  6.63406017E-04  6.63406017E-04  6.63406017E-04  6.63406017E-04  6.63406017E-04  6.63406017E-04
    6.63406017E-04  6.63406017E-04  6.63406017E-04  6.63406017E-04  6.63406017E-04  6.63406017E-04  6.63406017E-04  6.63406017E-04  6.63406017E-04  6.63406017E-04  6.63406017E-04  6.63406017E-04  6.63406017E-04  6.63406017E-04  6.63406017E-04  6.63406017E-04  6.63406017E-04  6.63406017E-04  6.63406017E-04  6.63406017E-04  6.63406017E-04  6.63406017E-04  6.63406017E-04  6.63406017E-04  6.63406017E-04  6.63406017E-04  6.63406017E-04  6.63406017E-04  6.63406017E-04  6.63406017E-04  6.63406017E-04  6.63406017E-04  6.63406017E-04  6.63406017E-04  6.63406017E-04  6.63406017E-04  6.63406017E-04  6.63406017E-04  6.63406017E-04  6.63406017E-04  6.63406017E-04  6.63406017E-04  6.63406017E-04  6.63406017E-04  6.63406017E-04  6.63406017E-04  6.63406017E-04  6.63406017E-04  6.63406017E-04  6.63406017E-04  6.63406017E-04  6.63406017E-04  6.63406017E-04  6.63406017E-04  6.63406017E-04  6.63406017E-04  6.63406017E-04  6.63406017E-04  6.63406017E-04  6.63406017E-04  6.63406017E-04  6.63406017E-04  6.63406017E-04  6.63406017E-04  6.63406017E-04  6.63406017E-04
    6.63406017E-04  6.63406017E-04  6.63406017E-04  6.63406017E-04  6.63406017E-04  6.63406017E-04  6.63406017E-04  6.63406017E-04  6.63406017E-04  6.63406017E-04  6.63406017E-04  6.63406017E-04  6.63406017E-04  6.63406017E-04  6.63406017E-04  6.63406017E-04  6.63406017E-04  6.63406017E-04  6.63406017E-04  6.63406017E-04  6.63406017E-04  6.63406017E-04  6.63406017E-04  6.63406017E-04  6.63406017E-04  6.63406017E-04  6.63406017E-04  6.63406017E-04  6.63406017E-04  6.63406017E-04  6.63406017E-04  6.63406017E-04  6.63406017E-04  6.63406017E-04  6.63406017E-04  6.63406017E-04  6.63406017E-04  6.63406017E-04  6.63406017E-04  6.63406017E-04  6.63406017E-04  6.63406017E-04  6.63406017E-04  6.63406017E-04  6.63406017E-04  6.63406017E-04  6.63406017E-04  6.63406017E-04  6.63406017E-04  6.63406017E-04  6.63406017E-04  6.63406017E-04  6.63406017E-04  6.63406017E-04  6.63406017E-04  6.63406017E-04  6.63406017E-04  6.63406017E-04  6.63406017E-04  6.63406017E-04  6.63406017E-04  6.63406017E-04  6.63406017E-04  6.63406017E-04  6.63406017E-04  6.63406017E-04
    6.63406017E-04  6.63406017E-04  6.63406017E-04  6.63406017E-04  6.63406017E-04  6.63406017E-04  6.63406017E-04  6.63406017E-04  6.63406017E-04  6.63406017E-04  6.63406017E-04  6.63406017E-04  6.63406017E-04  6.63406017E-04  6.63406017E-04  6.63406017E-04  6.63406017E-04  6.63406017E-04  6.63406017E-04  6.63406017E-04  6.63406017E-04  6.63406017E-04  6.63406017E-04  6.63406017E-04  6.63406017E-04  6.63406017E-04  6.63406017E-04  6.63406017E-04  6.63406017E-04  6.63406017E-04  6.63406017E-04  6.63406017E-04  6.63406017E-04  6.63406017E-04  6.63406017E-04  6.63406017E-04  6.63406017E-04  6.63406017E-04  6.63406017E-04  6.63406017E-04  6.63406017E-04  6.63406017E-04  6.63406017E-04  6.63406017E-04  6.63406017E-04  6.63406017E-04  6.63406017E-04  6.63406017E-04  6.63406017E-04  6.63406017E-04  6.63406017E-04  6.63406017E-04  6.63406017E-04  6.63406017E-04  6.63406017E-04  6.63406017E-04  6.63406017E-04  6.63406017E-04  6.63406017E-04  6.63406017E-04  6.63406017E-04  6.63406017E-04  6.63406017E-04  6.63406017E-04  6.63406017E-04  6.63406017E-04
    6.63406017E-04  6.63406017E-04  6.63406017E-04  6.63406017E-04  6.63406017E-04  6.63406017E-04  6.63406017E-04  6.63406017E-04  6.63406017E-04  6.63406017E-04  6.63406017E-04  6.63406017E-04  6.63406017E-04  6.63406017E-04  6.63406017E-04  6.63406017E-04  6.63406017E-04  6.63406017E-04  6.63406017E-04  6.63406017E-04  6.63406017E-04  6.63406017E-04  6.63406017E-04  6.63406017E-04  6.63406017E-04  6.63406017E-04  6.63406017E-04  6.63406017E-04  6.63406017E-04  6.63406017E-04  6.63406017E-04  6.63406017E-04  6.63406017E-04  6.63406017E-04  6.63406017E-04  6.63406017E-04  6.63406017E-04  6.63406017E-04  6.63406017E-04  6.63406017E-04  6.63406017E-04  6.63406017E-04  6.63406017E-04  6.63406017E-04  6.63406017E-04  6.63406017E-04  6.63406017E-04  6.63406017E-04  6.63406017E-04  6.63406017E-04  6.63406017E-04  6.63406017E-04  6.63406017E-04  6.63406017E-04  6.63406017E-04  6.63406017E-04  6.63406017E-04  6.63406017E-04  6.63406017E-04  6.63406017E-04  6.63406017E-04  6.63406017E-04  6.63406017E-04  6.63406017E-04  6.63406017E-04  6.63406017E-04
    6.63406017E-04  6.63406017E-04  6.63406017E-04  6.63406017E-04  6.63406017E-04  6.63406017E-04  6.63406017E-04  6.63406017E-04  6.63406017E-04  6.63406017E-04  6.63406017E-04  6.63406017E-04  6.63406017E-04  6.63406017E-04  6.63406017E-04  6.63406017E-04  6.63406017E-04  6.63406017E-04  6.63406017E-04  6.63406017E-04  6.63406017E-04  6.63406017E-04  6.63406017E-04  6.63406017E-04  6.63406017E-04  6.63406017E-04  6.63406017E-04  6.63406017E-04  6.63406017E-04  6.63406017E-04  6.63406017E-04  6.63406017E-04  6.63406017E-04  6.63406017E-04  6.63406017E-04  6.63406017E-04  6.63406017E-04  6.63406017E-04  6.63406017E-04  6.63406017E-04  6.63406017E-04  6.63406017E-04  6.63406017E-04  6.63406017E-04  6.63406017E-04  6.63406017E-04  6.63406017E-04  6.63406017E-04  6.63406017E-04  6.63406017E-04  6.63406017E-04  6.63406017E-04  6.63406017E-04  6.63406017E-04  6.63406017E-04  6.63406017E-04  6.63406017E-04  6.63406017E-04  6.63406017E-04  6.63406017E-04  6.63406017E-04  6.63406017E-04  6.63406017E-04  6.63406017E-04  6.63406017E-04  6.63406017E-04
    6.63406017E-04  6.63406017E-04  6.63406017E-04  6.63406017E-04  6.63406017E-04  6.63406017E-04  6.63406017E-04  6.63406017E-04  6.63406017E-04  6.63406017E-04  6.63406017E-04  6.63406017E-04  6.63406017E-04  6.63406017E-04  6.63406017E-04  6.63406017E-04  6.63406017E-04  6.63406017E-04  6.63406017E-04  6.63406017E-04  6.63406017E-04  6.63406017E-04  6.63406017E-04  6.63406017E-04  6.63406017E-04  6.63406017E-04  6.63406017E-04  6.63406017E-04  6.63406017E-04  6.63406017E-04  6.63406017E-04  6.63406017E-04  6.63406017E-04  6.63406017E-04  6.63406017E-04  6.63406017E-04  6.63406017E-04  6.63406017E-04  6.63406017E-04  6.63406017E-04  6.63406017E-04  6.63406017E-04  6.63406017E-04  6.63406017E-04  6.63406017E-04  6.63406017E-04  6.63406017E-04  6.63406017E-04  6.63406017E-04  6.63406017E-04  6.63406017E-04  6.63406017E-04  6.63406017E-04  6.63406017E-04  6.63406017E-04  6.63406017E-04  6.63406017E-04  6.63406017E-04  6.63406017E-04  6.63406017E-04  6.63406017E-04  6.63406017E-04  6.63406017E-04  6.63406017E-04  6.63406017E-04  6.63406017E-04
    6.63406017E-04  6.63406017E-04  6.63406017E-04  6.63406017E-04  6.63406017E-04  6.63406017E-04  6.63406017E-04  6.63406017E-04  6.63406017E-04  6.63406017E-04  6.63406017E-04  6.63406017E-04  6.63406017E-04  6.63406017E-04  6.63406017E-04  6.63406017E-04  6.63406017E-04  6.63406017E-04  6.63406017E-04  6.63406017E-04  6.63406017E-04  6.63406017E-04  6.63406017E-04  6.63406017E-04  6.63406017E-04  6.63406017E-04  6.63406017E-04  6.63406017E-04  6.63406017E-04  6.63406017E-04  6.63406017E-04  6.63406017E-04  6.63406017E-04  6.63406017E-04  6.63406017E-04  6.63406017E-04  6.63406017E-04  6.63406017E-04  6.63406017E-04  6.63406017E-04  6.63406017E-04  6.63406017E-04  6.63406017E-04  6.63406017E-04  6.63406017E-04  6.63406017E-04  6.63406017E-04  6.63406017E-04  6.63406017E-04  6.63406017E-04  6.63406017E-04  6.63406017E-04  6.63406017E-04  6.63406017E-04  6.63406017E-04  6.63406017E-04  6.63406017E-04  6.63406017E-04  6.63406017E-04  6.63406017E-04  6.63406017E-04  6.63406017E-04  6.63406017E-04  6.63406017E-04  6.63406017E-04  6.63406017E-04
    6.63406017E-04  6.63406017E-04  6.63406017E-04  6.63406017E-04  6.63406017E-04  6.63406017E-04  6.63406017E-04  6.63406017E-04  6.63406017E-04  6.63406017E-04  6.63406017E-04  6.63406017E-04  6.63406017E-04  6.63406017E-04  6.63406017E-04  6.63406017E-04  6.63406017E-04  6.63406017E-04  6.63406017E-04  6.63406017E-04  6.63406017E-04  6.63406017E-04  6.63406017E-04  6.63406017E-04  6.63406017E-04  6.63406017E-04  6.63406017E-04  6.63406017E-04  6.63406017E-04  6.63406017E-04  6.63406017E-04  6.63406017E-04  6.63406017E-04  6.63406017E-04  6.63406017E-04  6.63406017E-04  6.63406017E-04  6.63406017E-04  6.63406017E-04  6.63406017E-04  6.63406017E-04  6.63406017E-04  6.63406017E-04  6.63406017E-04  6.63406017E-04  6.63406017E-04  6.63406017E-04  6.63406017E-04  6.63406017E-04  6.63406017E-04  6.63406017E-04  6.63406017E-04  6.63406017E-04  6.63406017E-04  6.63406017E-04  6.63406017E-04  6.63406017E-04  6.63406017E-04  6.63406017E-04  6.63406017E-04  6.63406017E-04  6.63406017E-04  6.63406017E-04  6.63406017E-04  6.63406017E-04  6.63406017E-04
    6.63406017E-04  6.63406017E-04  6.63406017E-04  6.63406017E-04  6.63406017E-04  6.63406017E-04  6.63406017E-04  6.63406017E-04  6.63406017E-04  6.63406017E-04  6.63406017E-04  6.63406017E-04  6.63406017E-04  6.63406017E-04  6.63406017E-04  6.63406017E-04  6.63406017E-04  6.63406017E-04  6.63406017E-04  6.63406017E-04  6.63406017E-04  6.63406017E-04  6.63406017E-04  6.63406017E-04  6.63406017E-04  6.63406017E-04  6.63406017E-04  6.63406017E-04  6.63406017E-04  6.63406017E-04  6.63406017E-04  6.63406017E-04  6.63406017E-04  6.63406017E-04  6.63406017E-04  6.63406017E-04  6.63406017E-04  6.63406017E-04  6.63406017E-04  6.63406017E-04  6.63406017E-04  6.63406017E-04  6.63406017E-04  6.63406017E-04  6.63406017E-04  6.63406017E-04  6.63406017E-04  6.63406017E-04  6.63406017E-04  6.63406017E-04  6.63406017E-04  6.63406017E-04  6.63406017E-04  6.63406017E-04  6.63406017E-04  6.63406017E-04  6.63406017E-04  6.63406017E-04  6.63406017E-04  6.63406017E-04  6.63406017E-04  6.63406017E-04  6.63406017E-04  6.63406017E-04  6.63406017E-04  6.63406017E-04
    6.63406017E-04  6.63406017E-04  6.63406017E-04  6.63406017E-04  6.63406017E-04  6.63406017E-04  6.63406017E-04  6.63406017E-04  6.63406017E-04  6.63406017E-04  6.63406017E-04  6.63406017E-04  6.63406017E-04  6.63406017E-04  6.63406017E-04  6.63406017E-04  6.63406017E-04  6.63406017E-04  6.63406017E-04  6.63406017E-04  6.63406017E-04  6.63406017E-04  6.63406017E-04  6.63406017E-04  6.63406017E-04  6.63406017E-04  6.63406017E-04  6.63406017E-04  6.63406017E-04  6.63406017E-04  6.63406017E-04  6.63406017E-04  6.63406017E-04  6.63406017E-04  6.63406017E-04  6.63406017E-04  6.63406017E-04  6.63406017E-04  6.63406017E-04  6.63406017E-04  6.63406017E-04  6.63406017E-04  6.63406017E-04  6.63406017E-04  6.63406017E-04  6.63406017E-04  6.63406017E-04  6.63406017E-04  6.63406017E-04  6.63406017E-04  6.63406017E-04  6.63406017E-04  6.63406017E-04  6.63406017E-04  6.63406017E-04  6.63406017E-04  6.63406017E-04  6.63406017E-04  6.63406017E-04  6.63406017E-04  6.63406017E-04  6.63406017E-04  6.63406017E-04  6.63406017E-04  6.63406017E-04  6.63406017E-04
    6.63406017E-04  6.63406017E-04  6.63406017E-04  6.63406017E-04  6.63406017E-04  6.63406017E-04  6.63406017E-04  6.63406017E-04  6.63406017E-04  6.63406017E-04  6.63406017E-04  6.63406017E-04  6.63406017E-04  6.63406017E-04  6.63406017E-04  6.63406017E-04  6.63406017E-04  6.63406017E-04  6.63406017E-04  6.63406017E-04  6.63406017E-04  6.63406017E-04  6.63406017E-04  6.63406017E-04  6.63406017E-04  6.63406017E-04  6.63406017E-04  6.63406017E-04  6.63406017E-04  6.63406017E-04  6.63406017E-04  6.63406017E-04  6.63406017E-04  6.63406017E-04  6.63406017E-04  6.63406017E-04  6.63406017E-04  6.63406017E-04  6.63406017E-04  6.63406017E-04  6.63406017E-04  6.63406017E-04  6.63406017E-04  6.63406017E-04  6.63406017E-04  6.63406017E-04  6.63406017E-04  6.63406017E-04  6.63406017E-04  6.63406017E-04  6.63406017E-04  6.63406017E-04  6.63406017E-04  6.63406017E-04  6.63406017E-04  6.63406017E-04  6.63406017E-04  6.63406017E-04  6.63406017E-04  6.63406017E-04  6.63406017E-04  6.63406017E-04  6.63406017E-04  6.63406017E-04  6.63406017E-04  6.63406017E-04
    6.63406017E-04  6.63406017E-04  6.63406017E-04  6.63406017E-04  6.63406017E-04  6.63406017E-04  6.63406017E-04  6.63406017E-04  6.63406017E-04  6.63406017E-04  6.63406017E-04  6.63406017E-04  6.63406017E-04  6.63406017E-04  6.63406017E-04  6.63406017E-04  6.63406017E-04  6.63406017E-04  6.63406017E-04  6.63406017E-04  6.63406017E-04  6.63406017E-04  6.63406017E-04  6.63406017E-04  6.63406017E-04  6.63406017E-04  6.63406017E-04  6.63406017E-04  6.63406017E-04  6.63406017E-04  6.63406017E-04  6.63406017E-04  6.63406017E-04  6.63406017E-04  6.63406017E-04  6.63406017E-04  6.63406017E-04  6.63406017E-04  6.63406017E-04  6.63406017E-04  6.63406017E-04  6.63406017E-04  6.63406017E-04  6.63406017E-04  6.63406017E-04  6.63406017E-04  6.63406017E-04  6.63406017E-04  6.63406017E-04  6.63406017E-04  6.63406017E-04  6.63406017E-04  6.63406017E-04  6.63406017E-04  6.63406017E-04  6.63406017E-04  6.63406017E-04  6.63406017E-04  6.63406017E-04  6.63406017E-04  6.63406017E-04  6.63406017E-04  6.63406017E-04  6.63406017E-04  6.63406017E-04  6.63406017E-04
    6.63406017E-04  6.63406017E-04  6.63406017E-04  6.63406017E-04  6.63406017E-04  6.63406017E-04  6.63406017E-04  6.63406017E-04  6.63406017E-04  6.63406017E-04  6.63406017E-04  6.63406017E-04  6.63406017E-04  6.63406017E-04  6.63406017E-04  6.63406017E-04  6.63406017E-04  6.63406017E-04  6.63406017E-04  6.63406017E-04  6.63406017E-04  6.63406017E-04  6.63406017E-04  6.63406017E-04  6.63406017E-04  6.63406017E-04  6.63406017E-04  6.63406017E-04  6.63406017E-04  6.63406017E-04  6.63406017E-04  6.63406017E-04  6.63406017E-04  6.63406017E-04  6.63406017E-04  6.63406017E-04  6.63406017E-04  6.63406017E-04  6.63406017E-04  6.63406017E-04  6.63406017E-04  6.63406017E-04  6.63406017E-04  6.63406017E-04  6.63406017E-04  6.63406017E-04  6.63406017E-04  6.63406017E-04  6.63406017E-04  6.63406017E-04  6.63406017E-04  6.63406017E-04  6.63406017E-04  6.63406017E-04  6.63406017E-04  6.63406017E-04  6.63406017E-04  6.63406017E-04  6.63406017E-04  6.63406017E-04  6.63406017E-04  6.63406017E-04  6.63406017E-04  6.63406017E-04  6.63406017E-04  6.63406017E-04
    6.63406017E-04  6.63406017E-04  6.63406017E-04  6.63406017E-04  6.63406017E-04  6.63406017E-04  6.63406017E-04  6.63406017E-04  6.63406017E-04  6.63406017E-04  6.63406017E-04  6.63406017E-04  6.63406017E-04  6.63406017E-04  6.63406017E-04  6.63406017E-04  6.63406017E-04  6.63406017E-04  6.63406017E-04  6.63406017E-04  6.63406017E-04  6.63406017E-04  6.63406017E-04  6.63406017E-04  6.63406017E-04  6.63406017E-04  6.63406017E-04  6.63406017E-04  6.63406017E-04  6.63406017E-04  6.63406017E-04  6.63406017E-04  6.63406017E-04  6.63406017E-04  6.63406017E-04  6.63406017E-04  6.63406017E-04  6.63406017E-04  6.63406017E-04  6.63406017E-04  6.63406017E-04  6.63406017E-04  6.63406017E-04  6.63406017E-04  6.63406017E-04  6.63406017E-04  6.63406017E-04  6.63406017E-04  6.63406017E-04  6.63406017E-04  6.63406017E-04  6.63406017E-04  6.63406017E-04  6.63406017E-04  6.63406017E-04  6.63406017E-04  6.63406017E-04  6.63406017E-04  6.63406017E-04  6.63406017E-04  6.63406017E-04  6.63406017E-04  6.63406017E-04  6.63406017E-04  6.63406017E-04  6.63406017E-04
    6.63406017E-04  6.63406017E-04  6.63406017E-04  6.63406017E-04  6.63406017E-04  6.63406017E-04  6.63406017E-04  6.63406017E-04  6.63406017E-04  6.63406017E-04  6.63406017E-04  6.63406017E-04  6.63406017E-04  6.63406017E-04  6.63406017E-04  6.63406017E-04  6.63406017E-04  6.63406017E-04  6.63406017E-04  6.63406017E-04  6.63406017E-04  6.63406017E-04  6.63406017E-04  6.63406017E-04  6.63406017E-04  6.63406017E-04  6.63406017E-04  6.63406017E-04  6.63406017E-04  6.63406017E-04  6.63406017E-04  6.63406017E-04  6.63406017E-04  6.63406017E-04  6.63406017E-04  6.63406017E-04  6.63406017E-04  6.63406017E-04  6.63406017E-04  6.63406017E-04  6.63406017E-04  6.63406017E-04  6.63406017E-04  6.63406017E-04  6.63406017E-04  6.63406017E-04  6.63406017E-04  6.63406017E-04  6.63406017E-04  6.63406017E-04  6.63406017E-04  6.63406017E-04  6.63406017E-04  6.63406017E-04  6.63406017E-04  6.63406017E-04  6.63406017E-04  6.63406017E-04  6.63406017E-04  6.63406017E-04  6.63406017E-04  6.63406017E-04  6.63406017E-04  6.63406017E-04  6.63406017E-04  6.63406017E-04
    6.63406017E-04  6.63406017E-04  6.63406017E-04  6.63406017E-04  6.63406017E-04  6.63406017E-04  6.63406017E-04  6.63406017E-04  6.63406017E-04  6.63406017E-04  6.63406017E-04  6.63406017E-04  6.63406017E-04  6.63406017E-04  6.63406017E-04  6.63406017E-04  6.63406017E-04  6.63406017E-04  6.63406017E-04  6.63406017E-04  6.63406017E-04  6.63406017E-04  6.63406017E-04  6.63406017E-04  6.63406017E-04  6.63406017E-04  6.63406017E-04  6.63406017E-04  6.63406017E-04  6.63406017E-04  6.63406017E-04  6.63406017E-04  6.63406017E-04  6.63406017E-04  6.63406017E-04  6.63406017E-04  6.63406017E-04  6.63406017E-04  6.63406017E-04  6.63406017E-04  6.63406017E-04  6.63406017E-04  6.63406017E-04  6.63406017E-04  6.63406017E-04  6.63406017E-04  6.63406017E-04  6.63406017E-04  6.63406017E-04  6.63406017E-04  6.63406017E-04  6.63406017E-04  6.63406017E-04  6.63406017E-04  6.63406017E-04  6.63406017E-04  6.63406017E-04  6.63406017E-04  6.63406017E-04  6.63406017E-04  6.63406017E-04  6.63406017E-04  6.63406017E-04  6.63406017E-04  6.63406017E-04  6.63406017E-04
    6.63406017E-04  6.63406017E-04  6.63406017E-04  6.63406017E-04  6.63406017E-04  6.63406017E-04  6.63406017E-04  6.63406017E-04  6.63406017E-04  6.63406017E-04  6.63406017E-04  6.63406017E-04  6.63406017E-04  6.63406017E-04  6.63406017E-04  6.63406017E-04  6.63406017E-04  6.63406017E-04  6.63406017E-04  6.63406017E-04  6.63406017E-04  6.63406017E-04  6.63406017E-04  6.63406017E-04  6.63406017E-04  6.63406017E-04  6.63406017E-04  6.63406017E-04  6.63406017E-04  6.63406017E-04  6.63406017E-04  6.63406017E-04  6.63406017E-04  6.63406017E-04  6.63406017E-04  6.63406017E-04  6.63406017E-04  6.63406017E-04  6.63406017E-04  6.63406017E-04  6.63406017E-04  6.63406017E-04  6.63406017E-04  6.63406017E-04  6.63406017E-04  6.63406017E-04  6.63406017E-04  6.63406017E-04  6.63406017E-04  6.63406017E-04  6.63406017E-04  6.63406017E-04  6.63406017E-04  6.63406017E-04  6.63406017E-04  6.63406017E-04  6.63406017E-04  6.63406017E-04  6.63406017E-04  6.63406017E-04  6.63406017E-04  6.63406017E-04  6.63406017E-04  6.63406017E-04  6.63406017E-04  6.63406017E-04
    6.63406017E-04  6.63406017E-04  6.63406017E-04  6.63406017E-04  6.63406017E-04  6.63406017E-04  6.63406017E-04  6.63406017E-04  6.63406017E-04  6.63406017E-04  6.63406017E-04  6.63406017E-04  6.63406017E-04  6.63406017E-04  6.63406017E-04  6.63406017E-04  6.63406017E-04  6.63406017E-04  6.63406017E-04  6.63406017E-04  6.63406017E-04  6.63406017E-04  6.63406017E-04  6.63406017E-04  6.63406017E-04  6.63406017E-04  6.63406017E-04  6.63406017E-04  6.63406017E-04  6.63406017E-04  6.63406017E-04  6.63406017E-04  6.63406017E-04  6.63406017E-04  6.63406017E-04  6.63406017E-04  6.63406017E-04  6.63406017E-04  6.63406017E-04  6.63406017E-04  6.63406017E-04  6.63406017E-04  6.63406017E-04  6.63406017E-04  6.63406017E-04  6.63406017E-04  6.63406017E-04  6.63406017E-04  6.63406017E-04  6.63406017E-04  6.63406017E-04  6.63406017E-04  6.63406017E-04  6.63406017E-04  6.63406017E-04  6.63406017E-04  6.63406017E-04  6.63406017E-04  6.63406017E-04  6.63406017E-04  6.63406017E-04  6.63406017E-04  6.63406017E-04  6.63406017E-04  6.63406017E-04  6.63406017E-04
    6.63406017E-04  6.63406017E-04  6.63406017E-04  6.63406017E-04  6.63406017E-04  6.63406017E-04  6.63406017E-04  6.63406017E-04  6.63406017E-04  6.63406017E-04  6.63406017E-04  6.63406017E-04  6.63406017E-04  6.63406017E-04  6.63406017E-04  6.63406017E-04  6.63406017E-04  6.63406017E-04  6.63406017E-04  6.63406017E-04  6.63406017E-04  6.63406017E-04  6.63406017E-04  6.63406017E-04  6.63406017E-04  6.63406017E-04  6.63406017E-04  6.63406017E-04  6.63406017E-04  6.63406017E-04  6.63406017E-04  6.63406017E-04  6.63406017E-04  6.63406017E-04  6.63406017E-04  6.63406017E-04  6.63406017E-04  6.63406017E-04  6.63406017E-04  6.63406017E-04  6.63406017E-04  6.63406017E-04  6.63406017E-04  6.63406017E-04  6.63406017E-04  6.63406017E-04  6.63406017E-04  6.63406017E-04  6.63406017E-04  6.63406017E-04  6.63406017E-04  6.63406017E-04  6.63406017E-04  6.63406017E-04  6.63406017E-04  6.63406017E-04  6.63406017E-04  6.63406017E-04  6.63406017E-04  6.63406017E-04  6.63406017E-04  6.63406017E-04  6.63406017E-04  6.63406017E-04  6.63406017E-04  6.63406017E-04
    6.63406017E-04  6.63406017E-04  6.63406017E-04  6.63406017E-04  6.63406017E-04  6.63406017E-04  6.63406017E-04  6.63406017E-04  6.63406017E-04  6.63406017E-04  6.63406017E-04  6.63406017E-04  6.63406017E-04  6.63406017E-04  6.63406017E-04  6.63406017E-04  6.63406017E-04  6.63406017E-04  6.63406017E-04  6.63406017E-04  6.63406017E-04  6.63406017E-04  6.63406017E-04  6.63406017E-04  6.63406017E-04  6.63406017E-04  6.63406017E-04  6.63406017E-04  6.63406017E-04  6.63406017E-04  6.63406017E-04  6.63406017E-04  6.63406017E-04  6.63406017E-04  6.63406017E-04  6.63406017E-04  6.63406017E-04  6.63406017E-04  6.63406017E-04  6.63406017E-04  6.63406017E-04  6.63406017E-04  6.63406017E-04  6.63406017E-04  6.63406017E-04  6.63406017E-04  6.63406017E-04  6.63406017E-04  6.63406017E-04  6.63406017E-04  6.63406017E-04  6.63406017E-04  6.63406017E-04  6.63406017E-04  6.63406017E-04  6.63406017E-04  6.63406017E-04  6.63406017E-04  6.63406017E-04  6.63406017E-04  6.63406017E-04  6.63406017E-04  6.63406017E-04  6.63406017E-04  6.63406017E-04  6.63406017E-04
    6.63406017E-04  6.63406017E-04  6.63406017E-04  6.63406017E-04  6.63406017E-04  6.63406017E-04  6.63406017E-04  6.63406017E-04  6.63406017E-04  6.63406017E-04  6.63406017E-04  6.63406017E-04  6.63406017E-04  6.63406017E-04  6.63406017E-04  6.63406017E-04  6.63406017E-04  6.63406017E-04  6.63406017E-04  6.63406017E-04  6.63406017E-04  6.63406017E-04  6.63406017E-04  6.63406017E-04  6.63406017E-04  6.63406017E-04  6.63406017E-04  6.63406017E-04  6.63406017E-04  6.63406017E-04  6.63406017E-04  6.63406017E-04  6.63406017E-04  6.63406017E-04  6.63406017E-04  6.63406017E-04  6.63406017E-04  6.63406017E-04  6.63406017E-04  6.63406017E-04  6.63406017E-04  6.63406017E-04  6.63406017E-04  6.63406017E-04  6.63406017E-04  6.63406017E-04  6.63406017E-04  6.63406017E-04  6.63406017E-04  6.63406017E-04  6.63406017E-04  6.63406017E-04  6.63406017E-04  6.63406017E-04  6.63406017E-04  6.63406017E-04  6.63406017E-04  6.63406017E-04  6.63406017E-04  6.63406017E-04  6.63406017E-04  6.63406017E-04  6.63406017E-04  6.63406017E-04  6.63406017E-04  6.63406017E-04
    6.63406017E-04  6.63406017E-04  6.63406017E-04  6.63406017E-04  6.63406017E-04  6.63406017E-04  6.63406017E-04  6.63406017E-04  6.63406017E-04  6.63406017E-04  6.63406017E-04  6.63406017E-04  6.63406017E-04  6.63406017E-04  6.63406017E-04  6.63406017E-04  6.63406017E-04  6.63406017E-04  6.63406017E-04  6.63406017E-04  6.63406017E-04  6.63406017E-04  6.63406017E-04  6.63406017E-04  6.63406017E-04  6.63406017E-04  6.63406017E-04  6.63406017E-04  6.63406017E-04  6.63406017E-04  6.63406017E-04  6.63406017E-04  6.63406017E-04  6.63406017E-04  6.63406017E-04  6.63406017E-04  6.63406017E-04  6.63406017E-04  6.63406017E-04  6.63406017E-04  6.63406017E-04  6.63406017E-04  6.63406017E-04  6.63406017E-04  6.63406017E-04  6.63406017E-04  6.63406017E-04  6.63406017E-04  6.63406017E-04  6.63406017E-04  6.63406017E-04  6.63406017E-04  6.63406017E-04  6.63406017E-04  6.63406017E-04  6.63406017E-04  6.63406017E-04  6.63406017E-04  6.63406017E-04  6.63406017E-04  6.63406017E-04  6.63406017E-04  6.63406017E-04  6.63406017E-04  6.63406017E-04  6.63406017E-04
    6.63406017E-04  6.63406017E-04  6.63406017E-04  6.63406017E-04  6.63406017E-04  6.63406017E-04  6.63406017E-04  6.63406017E-04  6.63406017E-04  6.63406017E-04  6.63406017E-04  6.63406017E-04  6.63406017E-04  6.63406017E-04  6.63406017E-04  6.63406017E-04  6.63406017E-04  6.63406017E-04  6.63406017E-04  6.63406017E-04  6.63406017E-04  6.63406017E-04  6.63406017E-04  6.63406017E-04  6.63406017E-04  6.63406017E-04  6.63406017E-04  6.63406017E-04  6.63406017E-04  6.63406017E-04  6.63406017E-04  6.63406017E-04  6.63406017E-04  6.63406017E-04  6.63406017E-04  6.63406017E-04  6.63406017E-04  6.63406017E-04  6.63406017E-04  6.63406017E-04  6.63406017E-04  6.63406017E-04  6.63406017E-04  6.63406017E-04  6.63406017E-04  6.63406017E-04  6.63406017E-04  6.63406017E-04  6.63406017E-04  6.63406017E-04  6.63406017E-04  6.63406017E-04  6.63406017E-04  6.63406017E-04  6.63406017E-04  6.63406017E-04  6.63406017E-04  6.63406017E-04  6.63406017E-04  6.63406017E-04  6.63406017E-04  6.63406017E-04  6.63406017E-04  6.63406017E-04  6.63406017E-04  6.63406017E-04
    6.63406017E-04  6.63406017E-04  6.63406017E-04  6.63406017E-04  6.63406017E-04  6.63406017E-04  6.63406017E-04  6.63406017E-04  6.63406017E-04  6.63406017E-04  6.63406017E-04  6.63406017E-04  6.63406017E-04  6.63406017E-04  6.63406017E-04  6.63406017E-04  6.63406017E-04  6.63406017E-04  6.63406017E-04  6.63406017E-04  6.63406017E-04  6.63406017E-04  6.63406017E-04  6.63406017E-04  6.63406017E-04  6.63406017E-04  6.63406017E-04  6.63406017E-04  6.63406017E-04  6.63406017E-04  6.63406017E-04  6.63406017E-04  6.63406017E-04  6.63406017E-04  6.63406017E-04  6.63406017E-04  6.63406017E-04  6.63406017E-04  6.63406017E-04  6.63406017E-04  6.63406017E-04  6.63406017E-04  6.63406017E-04  6.63406017E-04  6.63406017E-04  6.63406017E-04  6.63406017E-04  6.63406017E-04  6.63406017E-04  6.63406017E-04  6.63406017E-04  6.63406017E-04  6.63406017E-04  6.63406017E-04  6.63406017E-04  6.63406017E-04  6.63406017E-04  6.63406017E-04  6.63406017E-04  6.63406017E-04  6.63406017E-04  6.63406017E-04  6.63406017E-04  6.63406017E-04  6.63406017E-04  6.63406017E-04
    6.63406017E-04  6.63406017E-04  6.63406017E-04  6.63406017E-04  6.63406017E-04  6.63406017E-04  6.63406017E-04  6.63406017E-04  6.63406017E-04  6.63406017E-04  6.63406017E-04  6.63406017E-04  6.63406017E-04  6.63406017E-04  6.63406017E-04  6.63406017E-04  6.63406017E-04  6.63406017E-04  6.63406017E-04  6.63406017E-04  6.63406017E-04  6.63406017E-04  6.63406017E-04  6.63406017E-04  6.63406017E-04  6.63406017E-04  6.63406017E-04  6.63406017E-04  6.63406017E-04  6.63406017E-04  6.63406017E-04  6.63406017E-04  6.63406017E-04  6.63406017E-04  6.63406017E-04  6.63406017E-04  6.63406017E-04  6.63406017E-04  6.63406017E-04  6.63406017E-04  6.63406017E-04  6.63406017E-04  6.63406017E-04  6.63406017E-04  6.63406017E-04  6.63406017E-04  6.63406017E-04  6.63406017E-04  6.63406017E-04  6.63406017E-04  6.63406017E-04  6.63406017E-04  6.63406017E-04  6.63406017E-04  6.63406017E-04  6.63406017E-04  6.63406017E-04  6.63406017E-04  6.63406017E-04  6.63406017E-04  6.63406017E-04  6.63406017E-04  6.63406017E-04  6.63406017E-04  6.63406017E-04  6.63406017E-04
    6.63406017E-04  6.63406017E-04  6.63406017E-04  6.63406017E-04  6.63406017E-04  6.63406017E-04  6.63406017E-04  6.63406017E-04  6.63406017E-04  6.63406017E-04  6.63406017E-04  6.63406017E-04  6.63406017E-04  6.63406017E-04  6.63406017E-04  6.63406017E-04  6.63406017E-04  6.63406017E-04  6.63406017E-04  6.63406017E-04  6.63406017E-04  6.63406017E-04  6.63406017E-04  6.63406017E-04  6.63406017E-04  6.63406017E-04  6.63406017E-04  6.63406017E-04  6.63406017E-04  6.63406017E-04  6.63406017E-04  6.63406017E-04  6.63406017E-04  6.63406017E-04  6.63406017E-04  6.63406017E-04  6.63406017E-04  6.63406017E-04  6.63406017E-04  6.63406017E-04  6.63406017E-04  6.63406017E-04  6.63406017E-04  6.63406017E-04  6.63406017E-04  6.63406017E-04  6.63406017E-04  6.63406017E-04  6.63406017E-04  6.63406017E-04  6.63406017E-04  6.63406017E-04  6.63406017E-04  6.63406017E-04  6.63406017E-04  6.63406017E-04  6.63406017E-04  6.63406017E-04  6.63406017E-04  6.63406017E-04  6.63406017E-04  6.63406017E-04  6.63406017E-04  6.63406017E-04  6.63406017E-04  6.63406017E-04