# File generated by Flopy version 3.6.0 on 03/31/2024 at 12:33:15.
BEGIN options
  READASARRAYS
END options

BEGIN period  1
  recharge
    INTERNAL  FACTOR  1.0
    6.63406017E-04  6.63406017E-04  6.63406017E-04  6.63406017E-04  6.63406017E-04  6.63406017E-04  6.63406017E-04  6.63406017E-04  6.63406017E-04  6.63406017E-04  6.63406017E-04  6.63406017E-04  6.63406017E-04  6.63406017E-04  6.63406017E-04  6.63406017E-04  6.63406017E-04  6.63406017E-04  6.63406017E-04  6.63406017E-04  6.63406017E-04  6.63406017E-04  6.63406017E-04  6.63406017E-04  6.63406017E-04  6.63406017E-04  6.63406017E-04  6.63406017E-04  6.63406017E-04  6.63406017E-04  6.63406017E-04  6.63406017E-04  6.63406017E-04  6.63406017E-04  6.63406017E-04  6.63406017E-04  6.63406017E-04  6.63406017E-04  6.63406017E-04  6.63406017E-04  6.63406017E-04  6.63406017E-04  6.63406017E-04  6.63406017E-04  6.63406017E-04  6.63406017E-04  6.63406017E-04  6.63406017E-04  6.63406017E-04  6.63406017E-04  6.63406017E-04  6.63406017E-04  6.63406017E-04  6.63406017E-04  6.63406017E-04  6.63406017E-04  6.63406017E-04  6.63406017E-04  6.63406017E-04  6.63406017E-04  6.63406017E-04  6.63406017E-04  6.63406017E-04  6.63406017E-04  6.63406017E-04  6.63406017E-04
    6.63406017E-04  6.63406017E-04  6.63406017E-04  6.63406017E-04  6.63406017E-04  6.63406017E-04  6.63406017E-04  6.63406017E-04  6.63406017E-04  6.63406017E-04  6.63406017E-04  6.63406017E-04  6.63406017E-04  6.63406017E-04  6.63406017E-04  6.63406017E-04  6.63406017E-04  6.63406017E-04  6.63406017E-04  6.63406017E-04  6.63406017E-04  6.63406017E-04  6.63406017E-04  6.63406017E-04  6.63406017E-04  6.63406017E-04  6.63406017E-04  6.63406017E-04  6.63406017E-04  6.63406017E-04  6.63406017E-04  6.63406017E-04  6.63406017E-04  6.63406017E-04  6.63406017E-04  6.63406017E-04  6.63406017E-04  6.63406017E-04  6.63406017E-04  6.63406017E-04  6.63406017E-04  6.63406017E-04  6.63406017E-04  6.63406017E-04  6.63406017E-04  6.63406017E-04  6.63406017E-04  6.63406017E-04  6.63406017E-04  6.63406017E-04  6.63406017E-04  6.63406017E-04  6.63406017E-04  6.63406017E-04  6.63406017E-04  6.63406017E-04  6.63406017E-04  6.63406017E-04  6.63406017E-04  6.63406017E-04  6.63406017E-04  6.63406017E-04  6.63406017E-04  6.63406017E-04  6.63406017E-04  6.63406017E-04
    6.63406017E-04  6.63406017E-04  6.63406017E-04  6.63406017E-04  6.63406017E-04  6.63406017E-04  6.63406017E-04  6.63406017E-04  6.63406017E-04  6.63406017E-04  6.63406017E-04  6.63406017E-04  6.63406017E-04  6.63406017E-04  6.63406017E-04  6.63406017E-04  6.63406017E-04  6.63406017E-04  6.63406017E-04  6.63406017E-04  6.63406017E-04  6.63406017E-04  6.63406017E-04  6.63406017E-04  6.63406017E-04  6.63406017E-04  6.63406017E-04  6.63406017E-04  6.63406017E-04  6.63406017E-04  6.63406017E-04  6.63406017E-04  6.63406017E-04  6.63406017E-04  6.63406017E-04  6.63406017E-04  6.63406017E-04  6.63406017E-04  6.63406017E-04  6.63406017E-04  6.63406017E-04  6.63406017E-04  6.63406017E-04  6.63406017E-04  6.63406017E-04  6.63406017E-04  6.63406017E-04  6.63406017E-04  6.63406017E-04  6.63406017E-04  6.63406017E-04  6.63406017E-04  6.63406017E-04  6.63406017E-04  6.63406017E-04  6.63406017E-04  6.63406017E-04  6.63406017E-04  6.63406017E-04  6.63406017E-04  6.63406017E-04  6.63406017E-04  6.63406017E-04  6.63406017E-04  6.63406017E-04  6.63406017E-04
    6.63406017E-04  6.63406017E-04  6.63406017E-04  6.63406017E-04  6.63406017E-04  6.63406017E-04  6.63406017E-04  6.63406017E-04  6.63406017E-04  6.63406017E-04  6.63406017E-04  6.63406017E-04  6.63406017E-04  6.63406017E-04  6.63406017E-04  6.63406017E-04  6.63406017E-04  6.63406017E-04  6.63406017E-04  6.63406017E-04  6.63406017E-04  6.63406017E-04  6.63406017E-04  6.63406017E-04  6.63406017E-04  6.63406017E-04  6.63406017E-04  6.63406017E-04  6.63406017E-04  6.63406017E-04  6.63406017E-04  6.63406017E-04  6.63406017E-04  6.63406017E-04  6.63406017E-04  6.63406017E-04  6.63406017E-04  6.63406017E-04  6.63406017E-04  6.63406017E-04  6.63406017E-04  6.63406017E-04  6.63406017E-04  6.63406017E-04  6.63406017E-04  6.63406017E-04  6.63406017E-04  6.63406017E-04  6.63406017E-04  6.63406017E-04  6.63406017E-04  6.63406017E-04  6.63406017E-04  6.63406017E-04  6.63406017E-04  6.63406017E-04  6.63406017E-04  6.63406017E-04  6.63406017E-04  6.63406017E-04  6.63406017E-04  6.63406017E-04  6.63406017E-04  6.63406017E-04  6.63406017E-04  6.63406017E-04
    6.63406017E-04  6.63406017E-04  6.63406017E-04  6.63406017E-04  6.63406017E-04  6.63406017E-04  6.63406017E-04  6.63406017E-04  6.63406017E-04  6.63406017E-04  6.63406017E-04  6.63406017E-04  6.63406017E-04  6.63406017E-04  6.63406017E-04  6.63406017E-04  6.63406017E-04  6.63406017E-04  6.63406017E-04  6.63406017E-04  6.63406017E-04  6.63406017E-04  6.63406017E-04  6.63406017E-04  6.63406017E-04  6.63406017E-04  6.63406017E-04  6.63406017E-04  6.63406017E-04  6.63406017E-04  6.63406017E-04  6.63406017E-04  6.63406017E-04  6.63406017E-04  6.63406017E-04  6.63406017E-04  6.63406017E-04  6.63406017E-04  6.63406017E-04  6.63406017E-04  6.63406017E-04  6.63406017E-04  6.63406017E-04  6.63406017E-04  6.63406017E-04  6.63406017E-04  6.63406017E-04  6.63406017E-04  6.63406017E-04  6.63406017E-04  6.63406017E-04  6.63406017E-04  6.63406017E-04  6.63406017E-04  6.63406017E-04  6.63406017E-04  6.63406017E-04  6.63406017E-04  6.63406017E-04  6.63406017E-04  6.63406017E-04  6.63406017E-04  6.63406017E-04  6.63406017E-04  6.63406017E-04  6.63406017E-04
    6.63406017E-04  6.63406017E-04  6.63406017E-04  6.63406017E-04  6.63406017E-04  6.63406017E-04  6.63406017E-04  6.63406017E-04  6.63406017E-04  6.63406017E-04  6.63406017E-04  6.63406017E-04  6.63406017E-04  6.63406017E-04  6.63406017E-04  6.63406017E-04  6.63406017E-04  6.63406017E-04  6.63406017E-04  6.63406017E-04  6.63406017E-04  6.63406017E-04  6.63406017E-04  6.63406017E-04  6.63406017E-04  6.63406017E-04  6.63406017E-04  6.63406017E-04  6.63406017E-04  6.63406017E-04  6.63406017E-04  6.63406017E-04  6.63406017E-04  6.63406017E-04  6.63406017E-04  6.63406017E-04  6.63406017E-04  6.63406017E-04  6.63406017E-04  6.63406017E-04  6.63406017E-04  6.63406017E-04  6.63406017E-04  6.63406017E-04  6.63406017E-04  6.63406017E-04  6.63406017E-04  6.63406017E-04  6.63406017E-04  6.63406017E-04  6.63406017E-04  6.63406017E-04  6.63406017E-04  6.63406017E-04  6.63406017E-04  6.63406017E-04  6.63406017E-04  6.63406017E-04  6.63406017E-04  6.63406017E-04  6.63406017E-04  6.63406017E-04  6.63406017E-04  6.63406017E-04  6.63406017E-04  6.63406017E-04
    6.63406017E-04  6.63406017E-04  6.63406017E-04  6.63406017E-04  6.63406017E-04  6.63406017E-04  6.63406017E-04  6.63406017E-04  6.63406017E-04  6.63406017E-04  6.63406017E-04  6.63406017E-04  6.63406017E-04  6.63406017E-04  6.63406017E-04  6.63406017E-04  6.63406017E-04  6.63406017E-04  6.63406017E-04  6.63406017E-04  6.63406017E-04  6.63406017E-04  6.63406017E-04  6.63406017E-04  6.63406017E-04  6.63406017E-04  6.63406017E-04  6.63406017E-04  6.63406017E-04  6.63406017E-04  6.63406017E-04  6.63406017E-04  6.63406017E-04  6.63406017E-04  6.63406017E-04  6.63406017E-04  6.63406017E-04  6.63406017E-04  6.63406017E-04  6.63406017E-04  6.63406017E-04  6.63406017E-04  6.63406017E-04  6.63406017E-04  6.63406017E-04  6.63406017E-04  6.63406017E-04  6.63406017E-04  6.63406017E-04  6.63406017E-04  6.63406017E-04  6.63406017E-04  6.63406017E-04  6.63406017E-04  6.63406017E-04  6.63406017E-04  6.63406017E-04  6.63406017E-04  6.63406017E-04  6.63406017E-04  6.63406017E-04  6.63406017E-04  6.63406017E-04  6.63406017E-04  6.63406017E-04  6.63406017E-04
    6.63406017E-04  6.63406017E-04  6.63406017E-04  6.63406017E-04  6.63406017E-04  6.63406017E-04  6.63406017E-04  6.63406017E-04  6.63406017E-04  6.63406017E-04  6.63406017E-04  6.63406017E-04  6.63406017E-04  6.63406017E-04  6.63406017E-04  6.63406017E-04  6.63406017E-04  6.63406017E-04  6.63406017E-04  6.63406017E-04  6.63406017E-04  6.63406017E-04  6.63406017E-04  6.63406017E-04  6.63406017E-04  6.63406017E-04  6.63406017E-04  6.63406017E-04  6.63406017E-04  6.63406017E-04  6.63406017E-04  6.63406017E-04  6.63406017E-04  6.63406017E-04  6.63406017E-04  6.63406017E-04  6.63406017E-04  6.63406017E-04  6.63406017E-04  6.63406017E-04  6.63406017E-04  6.63406017E-04  6.63406017E-04  6.63406017E-04  6.63406017E-04  6.63406017E-04  6.63406017E-04  6.63406017E-04  6.63406017E-04  6.63406017E-04  6.63406017E-04  6.63406017E-04  6.63406017E-04  6.63406017E-04  6.63406017E-04  6.63406017E-04  6.63406017E-04  6.63406017E-04  6.63406017E-04  6.63406017E-04  6.63406017E-04  6.63406017E-04  6.63406017E-04  6.63406017E-04  6.63406017E-04  6.63406017E-04
    6.63406017E-04  6.63406017E-04  6.63406017E-04  6.63406017E-04  6.63406017E-04  6.63406017E-04  6.63406017E-04  6.63406017E-04  6.63406017E-04  6.63406017E-04  6.63406017E-04  6.63406017E-04  6.63406017E-04  6.63406017E-04  6.63406017E-04  6.63406017E-04  6.63406017E-04  6.63406017E-04  6.63406017E-04  6.63406017E-04  6.63406017E-04  6.63406017E-04  6.63406017E-04  6.63406017E-04  6.63406017E-04  6.63406017E-04  6.63406017E-04  6.63406017E-04  6.63406017E-04  6.63406017E-04  6.63406017E-04  6.63406017E-04  6.63406017E-04  6.63406017E-04  6.63406017E-04  6.63406017E-04  6.63406017E-04  6.63406017E-04  6.63406017E-04  6.63406017E-04  6.63406017E-04  6.63406017E-04  6.63406017E-04  6.63406017E-04  6.63406017E-04  6.63406017E-04  6.63406017E-04  6.63406017E-04  6.63406017E-04  6.63406017E-04  6.63406017E-04  6.63406017E-04  6.63406017E-04  6.63406017E-04  6.63406017E-04  6.63406017E-04  6.63406017E-04  6.63406017E-04  6.63406017E-04  6.63406017E-04  6.63406017E-04  6.63406017E-04  6.63406017E-04  6.63406017E-04  6.63406017E-04  6.63406017E-04
    6.63406017E-04  6.63406017E-04  6.63406017E-04  6.63406017E-04  6.63406017E-04  6.63406017E-04  6.63406017E-04  6.63406017E-04  6.63406017E-04  6.63406017E-04  6.63406017E-04  6.63406017E-04  6.63406017E-04  6.63406017E-04  6.63406017E-04  6.63406017E-04  6.63406017E-04  6.63406017E-04  6.63406017E-04  6.63406017E-04  6.63406017E-04  6.63406017E-04  6.63406017E-04  6.63406017E-04  6.63406017E-04  6.63406017E-04  6.63406017E-04  6.63406017E-04  6.63406017E-04  6.63406017E-04  6.63406017E-04  6.63406017E-04  6.63406017E-04  6.63406017E-04  6.63406017E-04  6.63406017E-04  6.63406017E-04  6.63406017E-04  6.63406017E-04  6.63406017E-04  6.63406017E-04  6.63406017E-04  6.63406017E-04  6.63406017E-04  6.63406017E-04  6.63406017E-04  6.63406017E-04  6.63406017E-04  6.63406017E-04  6.63406017E-04  6.63406017E-04  6.63406017E-04  6.63406017E-04  6.63406017E-04  6.63406017E-04  6.63406017E-04  6.63406017E-04  6.63406017E-04  6.63406017E-04  6.63406017E-04  6.63406017E-04  6.63406017E-04  6.63406017E-04  6.63406017E-04  6.63406017E-04  6.63406017E-04
    6.63406017E-04  6.63406017E-04  6.63406017E-04  6.63406017E-04  6.63406017E-04  6.63406017E-04  6.63406017E-04  6.63406017E-04  6.63406017E-04  6.63406017E-04  6.63406017E-04  6.63406017E-04  6.63406017E-04  6.63406017E-04  6.63406017E-04  6.63406017E-04  6.63406017E-04  6.63406017E-04  6.63406017E-04  6.63406017E-04  6.63406017E-04  6.63406017E-04  6.63406017E-04  6.63406017E-04  6.63406017E-04  6.63406017E-04  6.63406017E-04  6.63406017E-04  6.63406017E-04  6.63406017E-04  6.63406017E-04  6.63406017E-04  6.63406017E-04  6.63406017E-04  6.63406017E-04  6.63406017E-04  6.63406017E-04  6.63406017E-04  6.63406017E-04  6.63406017E-04  6.63406017E-04  6.63406017E-04  6.63406017E-04  6.63406017E-04  6.63406017E-04  6.63406017E-04  6.63406017E-04  6.63406017E-04  6.63406017E-04  6.63406017E-04  6.63406017E-04  6.63406017E-04  6.63406017E-04  6.63406017E-04  6.63406017E-04  6.63406017E-04  6.63406017E-04  6.63406017E-04  6.63406017E-04  6.63406017E-04  6.63406017E-04  6.63406017E-04  6.63406017E-04  6.63406017E-04  6.63406017E-04  6.63406017E-04
    6.63406017E-04  6.63406017E-04  6.63406017E-04  6.63406017E-04  6.63406017E-04  6.63406017E-04  6.63406017E-04  6.63406017E-04  6.63406017E-04  6.63406017E-04  6.63406017E-04  6.63406017E-04  6.63406017E-04  6.63406017E-04  6.63406017E-04  6.63406017E-04  6.63406017E-04  6.63406017E-04  6.63406017E-04  6.63406017E-04  6.63406017E-04  6.63406017E-04  6.63406017E-04  6.63406017E-04  6.63406017E-04  6.63406017E-04  6.63406017E-04  6.63406017E-04  6.63406017E-04  6.63406017E-04  6.63406017E-04  6.63406017E-04  6.63406017E-04  6.63406017E-04  6.63406017E-04  6.63406017E-04  6.63406017E-04  6.63406017E-04  6.63406017E-04  6.63406017E-04  6.63406017E-04  6.63406017E-04  6.63406017E-04  6.63406017E-04  6.63406017E-04  6.63406017E-04  6.63406017E-04  6.63406017E-04  6.63406017E-04  6.63406017E-04  6.63406017E-04  6.63406017E-04  6.63406017E-04  6.63406017E-04  6.63406017E-04  6.63406017E-04  6.63406017E-04  6.63406017E-04  6.63406017E-04  6.63406017E-04  6.63406017E-04  6.63406017E-04  6.63406017E-04  6.63406017E-04  6.63406017E-04  6.63406017E-04
    6.63406017E-04  6.63406017E-04  6.63406017E-04  6.63406017E-04  6.63406017E-04  6.63406017E-04  6.63406017E-04  6.63406017E-04  6.63406017E-04  6.63406017E-04  6.63406017E-04  6.63406017E-04  6.63406017E-04  6.63406017E-04  6.63406017E-04  6.63406017E-04  6.63406017E-04  6.63406017E-04  6.63406017E-04  6.63406017E-04  6.63406017E-04  6.63406017E-04  6.63406017E-04  6.63406017E-04  6.63406017E-04  6.63406017E-04  6.63406017E-04  6.63406017E-04  6.63406017E-04  6.63406017E-04  6.63406017E-04  6.63406017E-04  6.63406017E-04  6.63406017E-04  6.63406017E-04  6.63406017E-04  6.63406017E-04  6.63406017E-04  6.63406017E-04  6.63406017E-04  6.63406017E-04  6.63406017E-04  6.63406017E-04  6.63406017E-04  6.63406017E-04  6.63406017E-04  6.63406017E-04  6.63406017E-04  6.63406017E-04  6.63406017E-04  6.63406017E-04  6.63406017E-04  6.63406017E-04  6.63406017E-04  6.63406017E-04  6.63406017E-04  6.63406017E-04  6.63406017E-04  6.63406017E-04  6.63406017E-04  6.63406017E-04  6.63406017E-04  6.63406017E-04  6.63406017E-04  6.63406017E-04  6.63406017E-04
    6.63406017E-04  6.63406017E-04  6.63406017E-04  6.63406017E-04  6.63406017E-04  6.63406017E-04  6.63406017E-04  6.63406017E-04  6.63406017E-04  6.63406017E-04  6.63406017E-04  6.63406017E-04  6.63406017E-04  6.63406017E-04  6.63406017E-04  6.63406017E-04  6.63406017E-04  6.63406017E-04  6.63406017E-04  6.63406017E-04  6.63406017E-04  6.63406017E-04  6.63406017E-04  6.63406017E-04  6.63406017E-04  6.63406017E-04  6.63406017E-04  6.63406017E-04  6.63406017E-04  6.63406017E-04  6.63406017E-04  6.63406017E-04  6.63406017E-04  6.63406017E-04  6.63406017E-04  6.63406017E-04  6.63406017E-04  6.63406017E-04  6.63406017E-04  6.63406017E-04  6.63406017E-04  6.63406017E-04  6.63406017E-04  6.63406017E-04  6.63406017E-04  6.63406017E-04  6.63406017E-04  6.63406017E-04  6.63406017E-04  6.63406017E-04  6.63406017E-04  6.63406017E-04  6.63406017E-04  6.63406017E-04  6.63406017E-04  6.63406017E-04  6.63406017E-04  6.63406017E-04  6.63406017E-04  6.63406017E-04  6.63406017E-04  6.63406017E-04  6.63406017E-04  6.63406017E-04  6.63406017E-04  6.63406017E-04
    6.63406017E-04  6.63406017E-04  6.63406017E-04  6.63406017E-04  6.63406017E-04  6.63406017E-04  6.63406017E-04  6.63406017E-04  6.63406017E-04  6.63406017E-04  6.63406017E-04  6.63406017E-04  6.63406017E-04  6.63406017E-04  6.63406017E-04  6.63406017E-04  6.63406017E-04  6.63406017E-04  6.63406017E-04  6.63406017E-04  6.63406017E-04  6.63406017E-04  6.63406017E-04  6.63406017E-04  6.63406017E-04  6.63406017E-04  6.63406017E-04  6.63406017E-04  6.63406017E-04  6.63406017E-04  6.63406017E-04  6.63406017E-04  6.63406017E-04  6.63406017E-04  6.63406017E-04  6.63406017E-04  6.63406017E-04  6.63406017E-04  6.63406017E-04  6.63406017E-04  6.63406017E-04  6.63406017E-04  6.63406017E-04  6.63406017E-04  6.63406017E-04  6.63406017E-04  6.63406017E-04  6.63406017E-04  6.63406017E-04  6.63406017E-04  6.63406017E-04  6.63406017E-04  6.63406017E-04  6.63406017E-04  6.63406017E-04  6.63406017E-04  6.63406017E-04  6.63406017E-04  6.63406017E-04  6.63406017E-04  6.63406017E-04  6.63406017E-04  6.63406017E-04  6.63406017E-04  6.63406017E-04  6.63406017E-04
    6.63406017E-04  6.63406017E-04  6.63406017E-04  6.63406017E-04  6.63406017E-04  6.63406017E-04  6.63406017E-04  6.63406017E-04  6.63406017E-04  6.63406017E-04  6.63406017E-04  6.63406017E-04  6.63406017E-04  6.63406017E-04  6.63406017E-04  6.63406017E-04  6.63406017E-04  6.63406017E-04  6.63406017E-04  6.63406017E-04  6.63406017E-04  6.63406017E-04  6.63406017E-04  6.63406017E-04  6.63406017E-04  6.63406017E-04  6.63406017E-04  6.63406017E-04  6.63406017E-04  6.63406017E-04  6.63406017E-04  6.63406017E-04  6.63406017E-04  6.63406017E-04  6.63406017E-04  6.63406017E-04  6.63406017E-04  6.63406017E-04  6.63406017E-04  6.63406017E-04  6.63406017E-04  6.63406017E-04  6.63406017E-04  6.63406017E-04  6.63406017E-04  6.63406017E-04  6.63406017E-04  6.63406017E-04  6.63406017E-04  6.63406017E-04  6.63406017E-04  6.63406017E-04  6.63406017E-04  6.63406017E-04  6.63406017E-04  6.63406017E-04  6.63406017E-04  6.63406017E-04  6.63406017E-04  6.63406017E-04  6.63406017E-04  6.63406017E-04  6.63406017E-04  6.63406017E-04  6.63406017E-04  6.63406017E-04
    6.63406017E-04  6.63406017E-04  6.63406017E-04  6.63406017E-04  6.63406017E-04  6.63406017E-04  6.63406017E-04  6.63406017E-04  6.63406017E-04  6.63406017E-04  6.63406017E-04  6.63406017E-04  6.63406017E-04  6.63406017E-04  6.63406017E-04  6.63406017E-04  6.63406017E-04  6.63406017E-04  6.63406017E-04  6.63406017E-04  6.63406017E-04  6.63406017E-04  6.63406017E-04  6.63406017E-04  6.63406017E-04  6.63406017E-04  6.63406017E-04  6.63406017E-04  6.63406017E-04  6.63406017E-04  6.63406017E-04  6.63406017E-04  6.63406017E-04  6.63406017E-04  6.63406017E-04  6.63406017E-04  6.63406017E-04  6.63406017E-04  6.63406017E-04  6.63406017E-04  6.63406017E-04  6.63406017E-04  6.63406017E-04  6.63406017E-04  6.63406017E-04  6.63406017E-04  6.63406017E-04  6.63406017E-04  6.63406017E-04  6.63406017E-04  6.63406017E-04  6.63406017E-04  6.63406017E-04  6.63406017E-04  6.63406017E-04  6.63406017E-04  6.63406017E-04  6.63406017E-04  6.63406017E-04  6.63406017E-04  6.63406017E-04  6.63406017E-04  6.63406017E-04  6.63406017E-04  6.63406017E-04  6.63406017E-04
    6.63406017E-04  6.63406017E-04  6.63406017E-04  6.63406017E-04  6.63406017E-04  6.63406017E-04  6.63406017E-04  6.63406017E-04  6.63406017E-04  6.63406017E-04  6.63406017E-04  6.63406017E-04  6.63406017E-04  6.63406017E-04  6.63406017E-04  6.63406017E-04  6.63406017E-04  6.63406017E-04  6.63406017E-04  6.63406017E-04  6.63406017E-04  6.63406017E-04  6.63406017E-04  6.63406017E-04  6.63406017E-04  6.63406017E-04  6.63406017E-04  6.63406017E-04  6.63406017E-04  6.63406017E-04  6.63406017E-04  6.63406017E-04  6.63406017E-04  6.63406017E-04  6.63406017E-04  6.63406017E-04  6.63406017E-04  6.63406017E-04  6.63406017E-04  6.63406017E-04  6.63406017E-04  6.63406017E-04  6.63406017E-04  6.63406017E-04  6.63406017E-04  6.63406017E-04  6.63406017E-04  6.63406017E-04  6.63406017E-04  6.63406017E-04  6.63406017E-04  6.63406017E-04  6.63406017E-04  6.63406017E-04  6.63406017E-04  6.63406017E-04  6.63406017E-04  6.63406017E-04  6.63406017E-04  6.63406017E-04  6.63406017E-04  6.63406017E-04  6.63406017E-04  6.63406017E-04  6.63406017E-04  6.63406017E-04
    6.63406017E-04  6.63406017E-04  6.63406017E-04  6.63406017E-04  6.63406017E-04  6.63406017E-04  6.63406017E-04  6.63406017E-04  6.63406017E-04  6.63406017E-04  6.63406017E-04  6.63406017E-04  6.63406017E-04  6.63406017E-04  6.63406017E-04  6.63406017E-04  6.63406017E-04  6.63406017E-04  6.63406017E-04  6.63406017E-04  6.63406017E-04  6.63406017E-04  6.63406017E-04  6.63406017E-04  6.63406017E-04  6.63406017E-04  6.63406017E-04  6.63406017E-04  6.63406017E-04  6.63406017E-04  6.63406017E-04  6.63406017E-04  6.63406017E-04  6.63406017E-04  6.63406017E-04  6.63406017E-04  6.63406017E-04  6.63406017E-04  6.63406017E-04  6.63406017E-04  6.63406017E-04  6.63406017E-04  6.63406017E-04  6.63406017E-04  6.63406017E-04  6.63406017E-04  6.63406017E-04  6.63406017E-04  6.63406017E-04  6.63406017E-04  6.63406017E-04  6.63406017E-04  6.63406017E-04  6.63406017E-04  6.63406017E-04  6.63406017E-04  6.63406017E-04  6.63406017E-04  6.63406017E-04  6.63406017E-04  6.63406017E-04  6.63406017E-04  6.63406017E-04  6.63406017E-04  6.63406017E-04  6.63406017E-04
    6.63406017E-04  6.63406017E-04  6.63406017E-04  6.63406017E-04  6.63406017E-04  6.63406017E-04  6.63406017E-04  6.63406017E-04  6.63406017E-04  6.63406017E-04  6.63406017E-04  6.63406017E-04  6.63406017E-04  6.63406017E-04  6.63406017E-04  6.63406017E-04  6.63406017E-04  6.63406017E-04  6.63406017E-04  6.63406017E-04  6.63406017E-04  6.63406017E-04  6.63406017E-04  6.63406017E-04  6.63406017E-04  6.63406017E-04  6.63406017E-04  6.63406017E-04  6.63406017E-04  6.63406017E-04  6.63406017E-04  6.63406017E-04  6.63406017E-04  6.63406017E-04  6.63406017E-04  6.63406017E-04  6.63406017E-04  6.63406017E-04  6.63406017E-04  6.63406017E-04  6.63406017E-04  6.63406017E-04  6.63406017E-04  6.63406017E-04  6.63406017E-04  6.63406017E-04  6.63406017E-04  6.63406017E-04  6.63406017E-04  6.63406017E-04  6.63406017E-04  6.63406017E-04  6.63406017E-04  6.63406017E-04  6.63406017E-04  6.63406017E-04  6.63406017E-04  6.63406017E-04  6.63406017E-04  6.63406017E-04  6.63406017E-04  6.63406017E-04  6.63406017E-04  6.63406017E-04  6.63406017E-04  6.63406017E-04
    6.63406017E-04  6.63406017E-04  6.63406017E-04  6.63406017E-04  6.63406017E-04  6.63406017E-04  6.63406017E-04  6.63406017E-04  6.63406017E-04  6.63406017E-04  6.63406017E-04  6.63406017E-04  6.63406017E-04  6.63406017E-04  6.63406017E-04  6.63406017E-04  6.63406017E-04  6.63406017E-04  6.63406017E-04  6.63406017E-04  6.63406017E-04  6.63406017E-04  6.63406017E-04  6.63406017E-04  6.63406017E-04  6.63406017E-04  6.63406017E-04  6.63406017E-04  6.63406017E-04  6.63406017E-04  6.63406017E-04  6.63406017E-04  6.63406017E-04  6.63406017E-04  6.63406017E-04  6.63406017E-04  6.63406017E-04  6.63406017E-04  6.63406017E-04  6.63406017E-04  6.63406017E-04  6.63406017E-04  6.63406017E-04  6.63406017E-04  6.63406017E-04  6.63406017E-04  6.63406017E-04  6.63406017E-04  6.63406017E-04  6.63406017E-04  6.63406017E-04  6.63406017E-04  6.63406017E-04  6.63406017E-04  6.63406017E-04  6.63406017E-04  6.63406017E-04  6.63406017E-04  6.63406017E-04  6.63406017E-04  6.63406017E-04  6.63406017E-04  6.63406017E-04  6.63406017E-04  6.63406017E-04  6.63406017E-04
    6.63406017E-04  6.63406017E-04  6.63406017E-04  6.63406017E-04  6.63406017E-04  6.63406017E-04  6.63406017E-04  6.63406017E-04  6.63406017E-04  6.63406017E-04  6.63406017E-04  6.63406017E-04  6.63406017E-04  6.63406017E-04  6.63406017E-04  6.63406017E-04  6.63406017E-04  6.63406017E-04  6.63406017E-04  6.63406017E-04  6.63406017E-04  6.63406017E-04  6.63406017E-04  6.63406017E-04  6.63406017E-04  6.63406017E-04  6.63406017E-04  6.63406017E-04  6.63406017E-04  6.63406017E-04  6.63406017E-04  6.63406017E-04  6.63406017E-04  6.63406017E-04  6.63406017E-04  6.63406017E-04  6.63406017E-04  6.63406017E-04  6.63406017E-04  6.63406017E-04  6.63406017E-04  6.63406017E-04  6.63406017E-04  6.63406017E-04  6.63406017E-04  6.63406017E-04  6.63406017E-04  6.63406017E-04  6.63406017E-04  6.63406017E-04  6.63406017E-04  6.63406017E-04  6.63406017E-04  6.63406017E-04  6.63406017E-04  6.63406017E-04  6.63406017E-04  6.63406017E-04  6.63406017E-04  6.63406017E-04  6.63406017E-04  6.63406017E-04  6.63406017E-04  6.63406017E-04  6.63406017E-04  6.63406017E-04
    6.63406017E-04  6.63406017E-04  6.63406017E-04  6.63406017E-04  6.63406017E-04  6.63406017E-04  6.63406017E-04  6.63406017E-04  6.63406017E-04  6.63406017E-04  6.63406017E-04  6.63406017E-04  6.63406017E-04  6.63406017E-04  6.63406017E-04  6.63406017E-04  6.63406017E-04  6.63406017E-04  6.63406017E-04  6.63406017E-04  6.63406017E-04  6.63406017E-04  6.63406017E-04  6.63406017E-04  6.63406017E-04  6.63406017E-04  6.63406017E-04  6.63406017E-04  6.63406017E-04  6.63406017E-04  6.63406017E-04  6.63406017E-04  6.63406017E-04  6.63406017E-04  6.63406017E-04  6.63406017E-04  6.63406017E-04  6.63406017E-04  6.63406017E-04  6.63406017E-04  6.63406017E-04  6.63406017E-04  6.63406017E-04  6.63406017E-04  6.63406017E-04  6.63406017E-04  6.63406017E-04  6.63406017E-04  6.63406017E-04  6.63406017E-04  6.63406017E-04  6.63406017E-04  6.63406017E-04  6.63406017E-04  6.63406017E-04  6.63406017E-04  6.63406017E-04  6.63406017E-04  6.63406017E-04  6.63406017E-04  6.63406017E-04  6.63406017E-04  6.63406017E-04  6.63406017E-04  6.63406017E-04  6.63406017E-04
    6.63406017E-04  6.63406017E-04  6.63406017E-04  6.63406017E-04  6.63406017E-04  6.63406017E-04  6.63406017E-04  6.63406017E-04  6.63406017E-04  6.63406017E-04  6.63406017E-04  6.63406017E-04  6.63406017E-04  6.63406017E-04  6.63406017E-04  6.63406017E-04  6.63406017E-04  6.63406017E-04  6.63406017E-04  6.63406017E-04  6.63406017E-04  6.63406017E-04  6.63406017E-04  6.63406017E-04  6.63406017E-04  6.63406017E-04  6.63406017E-04  6.63406017E-04  6.63406017E-04  6.63406017E-04  6.63406017E-04  6.63406017E-04  6.63406017E-04  6.63406017E-04  6.63406017E-04  6.63406017E-04  6.63406017E-04  6.63406017E-04  6.63406017E-04  6.63406017E-04  6.63406017E-04  6.63406017E-04  6.63406017E-04  6.63406017E-04  6.63406017E-04  6.63406017E-04  6.63406017E-04  6.63406017E-04  6.63406017E-04  6.63406017E-04  6.63406017E-04  6.63406017E-04  6.63406017E-04  6.63406017E-04  6.63406017E-04  6.63406017E-04  6.63406017E-04  6.63406017E-04  6.63406017E-04  6.63406017E-04  6.63406017E-04  6.63406017E-04  6.63406017E-04  6.63406017E-04  6.63406017E-04  6.63406017E-04
    6.63406017E-04  6.63406017E-04  6.63406017E-04  6.63406017E-04  6.63406017E-04  6.63406017E-04  6.63406017E-04  6.63406017E-04  6.63406017E-04  6.63406017E-04  6.63406017E-04  6.63406017E-04  6.63406017E-04  6.63406017E-04  6.63406017E-04  6.63406017E-04  6.63406017E-04  6.63406017E-04  6.63406017E-04  6.63406017E-04  6.63406017E-04  6.63406017E-04  6.63406017E-04  6.63406017E-04  6.63406017E-04  6.63406017E-04  6.63406017E-04  6.63406017E-04  6.63406017E-04  6.63406017E-04  6.63406017E-04  6.63406017E-04  6.63406017E-04  6.63406017E-04  6.63406017E-04  6.63406017E-04  6.63406017E-04  6.63406017E-04  6.63406017E-04  6.63406017E-04  6.63406017E-04  6.63406017E-04  6.63406017E-04  6.63406017E-04  6.63406017E-04  6.63406017E-04  6.63406017E-04  6.63406017E-04  6.63406017E-04  6.63406017E-04  6.63406017E-04  6.63406017E-04  6.63406017E-04  6.63406017E-04  6.63406017E-04  6.63406017E-04  6.63406017E-04  6.63406017E-04  6.63406017E-04  6.63406017E-04  6.63406017E-04  6.63406017E-04  6.63406017E-04  6.63406017E-04  6.63406017E-04  6.63406017E-04
    6.63406017E-04  6.63406017E-04  6.63406017E-04  6.63406017E-04  6.63406017E-04  6.63406017E-04  6.63406017E-04  6.63406017E-04  6.63406017E-04  6.63406017E-04  6.63406017E-04  6.63406017E-04  6.63406017E-04  6.63406017E-04  6.63406017E-04  6.63406017E-04  6.63406017E-04  6.63406017E-04  6.63406017E-04  6.63406017E-04  6.63406017E-04  6.63406017E-04  6.63406017E-04  6.63406017E-04  6.63406017E-04  6.63406017E-04  6.63406017E-04  6.63406017E-04  6.63406017E-04  6.63406017E-04  6.63406017E-04  6.63406017E-04  6.63406017E-04  6.63406017E-04  6.63406017E-04  6.63406017E-04  6.63406017E-04  6.63406017E-04  6.63406017E-04  6.63406017E-04  6.63406017E-04  6.63406017E-04  6.63406017E-04  6.63406017E-04  6.63406017E-04  6.63406017E-04  6.63406017E-04  6.63406017E-04  6.63406017E-04  6.63406017E-04  6.63406017E-04  6.63406017E-04  6.63406017E-04  6.63406017E-04  6.63406017E-04  6.63406017E-04  6.63406017E-04  6.63406017E-04  6.63406017E-04  6.63406017E-04  6.63406017E-04  6.63406017E-04  6.63406017E-04  6.63406017E-04  6.63406017E-04  6.63406017E-04
    6.63406017E-04  6.63406017E-04  6.63406017E-04  6.63406017E-04  6.63406017E-04  6.63406017E-04  6.63406017E-04  6.63406017E-04  6.63406017E-04  6.63406017E-04  6.63406017E-04  6.63406017E-04  6.63406017E-04  6.63406017E-04  6.63406017E-04  6.63406017E-04  6.63406017E-04  6.63406017E-04  6.63406017E-04  6.63406017E-04  6.63406017E-04  6.63406017E-04  6.63406017E-04  6.63406017E-04  6.63406017E-04  6.63406017E-04  6.63406017E-04  6.63406017E-04  6.63406017E-04  6.63406017E-04  6.63406017E-04  6.63406017E-04  6.63406017E-04  6.63406017E-04  6.63406017E-04  6.63406017E-04  6.63406017E-04  6.63406017E-04  6.63406017E-04  6.63406017E-04  6.63406017E-04  6.63406017E-04  6.63406017E-04  6.63406017E-04  6.63406017E-04  6.63406017E-04  6.63406017E-04  6.63406017E-04  6.63406017E-04  6.63406017E-04  6.63406017E-04  6.63406017E-04  6.63406017E-04  6.63406017E-04  6.63406017E-04  6.63406017E-04  6.63406017E-04  6.63406017E-04  6.63406017E-04  6.63406017E-04  6.63406017E-04  6.63406017E-04  6.63406017E-04  6.63406017E-04  6.63406017E-04  6.63406017E-04
    6.63406017E-04  6.63406017E-04  6.63406017E-04  6.63406017E-04  6.63406017E-04  6.63406017E-04  6.63406017E-04  6.63406017E-04  6.63406017E-04  6.63406017E-04  6.63406017E-04  6.63406017E-04  6.63406017E-04  6.63406017E-04  6.63406017E-04  6.63406017E-04  6.63406017E-04  6.63406017E-04  6.63406017E-04  6.63406017E-04  6.63406017E-04  6.63406017E-04  6.63406017E-04  6.63406017E-04  6.63406017E-04  6.63406017E-04  6.63406017E-04  6.63406017E-04  6.63406017E-04  6.63406017E-04  6.63406017E-04  6.63406017E-04  6.63406017E-04  6.63406017E-04  6.63406017E-04  6.63406017E-04  6.63406017E-04  6.63406017E-04  6.63406017E-04  6.63406017E-04  6.63406017E-04  6.63406017E-04  6.63406017E-04  6.63406017E-04  6.63406017E-04  6.63406017E-04  6.63406017E-04  6.63406017E-04  6.63406017E-04  6.63406017E-04  6.63406017E-04  6.63406017E-04  6.63406017E-04  6.63406017E-04  6.63406017E-04  6.63406017E-04  6.63406017E-04  6.63406017E-04  6.63406017E-04  6.63406017E-04  6.63406017E-04  6.63406017E-04  6.63406017E-04  6.63406017E-04  6.63406017E-04  6.63406017E-04