# NWT package for MODFLOW-NWT generated by Flopy 3.6.0
 1.000e-03 7.000e+02      4000 1.000e-07         2         1         0 SPECIFIED       0.8       0.4       0.5      0.05         1       400       1.5       0.9
         2         1         6         4         1         0         1     0.001     0.001       250
