# File generated by Flopy version 3.6.0 on 03/28/2024 at 12:28:18.
BEGIN options
END options

BEGIN griddata
  iconvert
    CONSTANT  0
  ss  LAYERED
    INTERNAL  FACTOR  1.0
           0.00900000       0.00900000       0.00900000       0.00900000       0.00900000       0.00900000       0.00900000       0.00900000       0.00900000       0.00900000       0.00900000       0.00900000       0.00900000       0.00900000       0.00900000       0.00900000       0.00900000       0.00900000       0.00900000       0.00900000       0.00900000       0.00900000       0.00900000       0.00900000       0.00900000       0.00900000       0.00900000       0.00900000       0.00900000       0.00900000       0.00900000       0.00900000       0.00900000       0.00900000       0.00900000       0.00900000       0.00900000       0.00900000       0.00900000       0.00900000       0.00900000       0.00900000       0.00900000       0.00900000       0.00900000       0.00900000       0.00900000       0.00900000       0.00900000       0.00900000       0.00900000       0.00900000       0.00900000       0.00900000       0.00900000       0.00900000       0.00900000       0.00900000       0.00900000       0.00900000       0.00900000       0.00900000       0.00900000       0.00900000       0.00900000       0.00900000
           0.00900000       0.00900000       0.00900000       0.00900000       0.00900000       0.00900000       0.00900000       0.00900000       0.00900000       0.00900000       0.00900000       0.00900000       0.00900000       0.00900000       0.00900000       0.00900000       0.00900000       0.00900000       0.00900000       0.00900000       0.00900000       0.00900000       0.00900000       0.00900000       0.00900000       0.00900000       0.00900000       0.00900000       0.00900000       0.00900000       0.00900000       0.00900000       0.00900000       0.00900000       0.00900000       0.00900000       0.00900000       0.00900000       0.00900000       0.00900000       0.00900000       0.00900000       0.00900000       0.00900000       0.00900000       0.00900000       0.00900000       0.00900000       0.00900000       0.00900000       0.00900000       0.00900000       0.00900000       0.00900000       0.00900000       0.00900000       0.00900000       0.00900000       0.00900000       0.00900000       0.00900000       0.00900000       0.00900000       0.00900000       0.00900000       0.00900000
           0.00900000       0.00900000       0.00900000       0.00900000       0.00900000       0.00900000       0.00900000       0.00900000       0.00900000       0.00900000       0.00900000       0.00900000       0.00900000       0.00900000       0.00900000       0.00900000       0.00900000       0.00900000       0.00900000       0.00900000       0.00900000       0.00900000       0.00900000       0.00900000       0.00900000       0.00900000       0.00900000       0.00900000       0.00900000       0.00900000       0.00900000       0.00900000       0.00900000       0.00900000       0.00900000       0.00900000       0.00900000       0.00900000       0.00900000       0.00900000       0.00900000       0.00900000       0.00900000       0.00900000       0.00900000       0.00900000       0.00900000       0.00900000       0.00900000       0.00900000       0.00900000       0.00900000       0.00900000       0.00900000       0.00900000       0.00900000       0.00900000       0.00900000       0.00900000       0.00900000       0.00900000       0.00900000       0.00900000       0.00900000       0.00900000       0.00900000
           0.00900000       0.00900000       0.00900000       0.00900000       0.00900000       0.00900000       0.00900000       0.00900000       0.00900000       0.00900000       0.00900000       0.00900000       0.00900000       0.00900000       0.00900000       0.00900000       0.00900000       0.00900000       0.00900000       0.00900000       0.00900000       0.00900000       0.00900000       0.00900000       0.00900000       0.00900000       0.00900000       0.00900000       0.00900000       0.00900000       0.00900000       0.00900000       0.00900000       0.00900000       0.00900000       0.00900000       0.00900000       0.00900000       0.00900000       0.00900000       0.00900000       0.00900000       0.00900000       0.00900000       0.00900000       0.00900000       0.00900000       0.00900000       0.00900000       0.00900000       0.00900000       0.00900000       0.00900000       0.00900000       0.00900000       0.00900000       0.00900000       0.00900000       0.00900000       0.00900000       0.00900000       0.00900000       0.00900000       0.00900000       0.00900000       0.00900000
           0.00900000       0.00900000       0.00900000       0.00900000       0.00900000       0.00900000       0.00900000       0.00900000       0.00900000       0.00900000       0.00900000       0.00900000       0.00900000       0.00900000       0.00900000       0.00900000       0.00900000       0.00900000       0.00900000       0.00900000       0.00900000       0.00900000       0.00900000       0.00900000       0.00900000       0.00900000       0.00900000       0.00900000       0.00900000       0.00900000       0.00900000       0.00900000       0.00900000       0.00900000       0.00900000       0.00900000       0.00900000       0.00900000       0.00900000       0.00900000       0.00900000       0.00900000       0.00900000       0.00900000       0.00900000       0.00900000       0.00900000       0.00900000       0.00900000       0.00900000       0.00900000       0.00900000       0.00900000       0.00900000       0.00900000       0.00900000       0.00900000       0.00900000       0.00900000       0.00900000       0.00900000       0.00900000       0.00900000       0.00900000       0.00900000       0.00900000
           0.00900000       0.00900000       0.00900000       0.00900000       0.00900000       0.00900000       0.00900000       0.00900000       0.00900000       0.00900000       0.00900000       0.00900000       0.00900000       0.00900000       0.00900000       0.00900000       0.00900000       0.00900000       0.00900000       0.00900000       0.00900000       0.00900000       0.00900000       0.00900000       0.00900000       0.00900000       0.00900000       0.00900000       0.00900000       0.00900000       0.00900000       0.00900000       0.00900000       0.00900000       0.00900000       0.00900000       0.00900000       0.00900000       0.00900000       0.00900000       0.00900000       0.00900000       0.00900000       0.00900000       0.00900000       0.00900000       0.00900000       0.00900000       0.00900000       0.00900000       0.00900000       0.00900000       0.00900000       0.00900000       0.00900000       0.00900000       0.00900000       0.00900000       0.00900000       0.00900000       0.00900000       0.00900000       0.00900000       0.00900000       0.00900000       0.00900000
           0.00900000       0.00900000       0.00900000       0.00900000       0.00900000       0.00900000       0.00900000       0.00900000       0.00900000       0.00900000       0.00900000       0.00900000       0.00900000       0.00900000       0.00900000       0.00900000       0.00900000       0.00900000       0.00900000       0.00900000       0.00900000       0.00900000       0.00900000       0.00900000       0.00900000       0.00900000       0.00900000       0.00900000       0.00900000       0.00900000       0.00900000       0.00900000       0.00900000       0.00900000       0.00900000       0.00900000       0.00900000       0.00900000       0.00900000       0.00900000       0.00900000       0.00900000       0.00900000       0.00900000       0.00900000       0.00900000       0.00900000       0.00900000       0.00900000       0.00900000       0.00900000       0.00900000       0.00900000       0.00900000       0.00900000       0.00900000       0.00900000       0.00900000       0.00900000       0.00900000       0.00900000       0.00900000       0.00900000       0.00900000       0.00900000       0.00900000
           0.00900000       0.00900000       0.00900000       0.00900000       0.00900000       0.00900000       0.00900000       0.00900000       0.00900000       0.00900000       0.00900000       0.00900000       0.00900000       0.00900000       0.00900000       0.00900000       0.00900000       0.00900000       0.00900000       0.00900000       0.00900000       0.00900000       0.00900000       0.00900000       0.00900000       0.00900000       0.00900000       0.00900000       0.00900000       0.00900000       0.00900000       0.00900000       0.00900000       0.00900000       0.00900000       0.00900000       0.00900000       0.00900000       0.00900000       0.00900000       0.00900000       0.00900000       0.00900000       0.00900000       0.00900000       0.00900000       0.00900000       0.00900000       0.00900000       0.00900000       0.00900000       0.00900000       0.00900000       0.00900000       0.00900000       0.00900000       0.00900000       0.00900000       0.00900000       0.00900000       0.00900000       0.00900000       0.00900000       0.00900000       0.00900000       0.00900000
           0.00900000       0.00900000       0.00900000       0.00900000       0.00900000       0.00900000       0.00900000       0.00900000       0.00900000       0.00900000       0.00900000       0.00900000       0.00900000       0.00900000       0.00900000       0.00900000       0.00900000       0.00900000       0.00900000       0.00900000       0.00900000       0.00900000       0.00900000       0.00900000       0.00900000       0.00900000       0.00900000       0.00900000       0.00900000       0.00900000       0.00900000       0.00900000       0.00900000       0.00900000       0.00900000       0.00900000       0.00900000       0.00900000       0.00900000       0.00900000       0.00900000       0.00900000       0.00900000       0.00900000       0.00900000       0.00900000       0.00900000       0.00900000       0.00900000       0.00900000       0.00900000       0.00900000       0.00900000       0.00900000       0.00900000       0.00900000       0.00900000       0.00900000       0.00900000       0.00900000       0.00900000       0.00900000       0.00900000       0.00900000       0.00900000       0.00900000
           0.00900000       0.00900000       0.00900000       0.00900000       0.00900000       0.00900000       0.00900000       0.00900000       0.00900000       0.00900000       0.00900000       0.00900000       0.00900000       0.00900000       0.00900000       0.00900000       0.00900000       0.00900000       0.00900000       0.00900000       0.00900000       0.00900000       0.00900000       0.00900000       0.00900000       0.00900000       0.00900000       0.00900000       0.00900000       0.00900000       0.00900000       0.00900000       0.00900000       0.00900000       0.00900000       0.00900000       0.00900000       0.00900000       0.00900000       0.00900000       0.00900000       0.00900000       0.00900000       0.00900000       0.00900000       0.00900000       0.00900000       0.00900000       0.00900000       0.00900000       0.00900000       0.00900000       0.00900000       0.00900000       0.00900000       0.00900000       0.00900000       0.00900000       0.00900000       0.00900000       0.00900000       0.00900000       0.00900000       0.00900000       0.00900000       0.00900000
           0.00900000       0.00900000       0.00900000       0.00900000       0.00900000       0.00900000       0.00900000       0.00900000       0.00900000       0.00900000       0.00900000       0.00900000       0.00900000       0.00900000       0.00900000       0.00900000       0.00900000       0.00900000       0.00900000       0.00900000       0.00900000       0.00900000       0.00900000       0.00900000       0.00900000       0.00900000       0.00900000       0.00900000       0.00900000       0.00900000       0.00900000       0.00900000       0.00900000       0.00900000       0.00900000       0.00900000       0.00900000       0.00900000       0.00900000       0.00900000       0.00900000       0.00900000       0.00900000       0.00900000       0.00900000       0.00900000       0.00900000       0.00900000       0.00900000       0.00900000       0.00900000       0.00900000       0.00900000       0.00900000       0.00900000       0.00900000       0.00900000       0.00900000       0.00900000       0.00900000       0.00900000       0.00900000       0.00900000       0.00900000       0.00900000       0.00900000
           0.00900000       0.00900000       0.00900000       0.00900000       0.00900000       0.00900000       0.00900000       0.00900000       0.00900000       0.00900000       0.00900000       0.00900000       0.00900000       0.00900000       0.00900000       0.00900000       0.00900000       0.00900000       0.00900000       0.00900000       0.00900000       0.00900000       0.00900000       0.00900000       0.00900000       0.00900000       0.00900000       0.00900000       0.00900000       0.00900000       0.00900000       0.00900000       0.00900000       0.00900000       0.00900000       0.00900000       0.00900000       0.00900000       0.00900000       0.00900000       0.00900000       0.00900000       0.00900000       0.00900000       0.00900000       0.00900000       0.00900000       0.00900000       0.00900000       0.00900000       0.00900000       0.00900000       0.00900000       0.00900000       0.00900000       0.00900000       0.00900000       0.00900000       0.00900000       0.00900000       0.00900000       0.00900000       0.00900000       0.00900000       0.00900000       0.00900000
           0.00900000       0.00900000       0.00900000       0.00900000       0.00900000       0.00900000       0.00900000       0.00900000       0.00900000       0.00900000       0.00900000       0.00900000       0.00900000       0.00900000       0.00900000       0.00900000       0.00900000       0.00900000       0.00900000       0.00900000       0.00900000       0.00900000       0.00900000       0.00900000       0.00900000       0.00900000       0.00900000       0.00900000       0.00900000       0.00900000       0.00900000       0.00900000       0.00900000       0.00900000       0.00900000       0.00900000       0.00900000       0.00900000       0.00900000       0.00900000       0.00900000       0.00900000       0.00900000       0.00900000       0.00900000       0.00900000       0.00900000       0.00900000       0.00900000       0.00900000       0.00900000       0.00900000       0.00900000       0.00900000       0.00900000       0.00900000       0.00900000       0.00900000       0.00900000       0.00900000       0.00900000       0.00900000       0.00900000       0.00900000       0.00900000       0.00900000
           0.00900000       0.00900000       0.00900000       0.00900000       0.00900000       0.00900000       0.00900000       0.00900000       0.00900000       0.00900000       0.00900000       0.00900000       0.00900000       0.00900000       0.00900000       0.00900000       0.00900000       0.00900000       0.00900000       0.00900000       0.00900000       0.00900000       0.00900000       0.00900000       0.00900000       0.00900000       0.00900000       0.00900000       0.00900000       0.00900000       0.00900000       0.00900000       0.00900000       0.00900000       0.00900000       0.00900000       0.00900000       0.00900000       0.00900000       0.00900000       0.00900000       0.00900000       0.00900000       0.00900000       0.00900000       0.00900000       0.00900000       0.00900000       0.00900000       0.00900000       0.00900000       0.00900000       0.00900000       0.00900000       0.00900000       0.00900000       0.00900000       0.00900000       0.00900000       0.00900000       0.00900000       0.00900000       0.00900000       0.00900000       0.00900000       0.00900000
           0.00900000       0.00900000       0.00900000       0.00900000       0.00900000       0.00900000       0.00900000       0.00900000       0.00900000       0.00900000       0.00900000       0.00900000       0.00900000       0.00900000       0.00900000       0.00900000       0.00900000       0.00900000       0.00900000       0.00900000       0.00900000       0.00900000       0.00900000       0.00900000       0.00900000       0.00900000       0.00900000       0.00900000       0.00900000       0.00900000       0.00900000       0.00900000       0.00900000       0.00900000       0.00900000       0.00900000       0.00900000       0.00900000       0.00900000       0.00900000       0.00900000       0.00900000       0.00900000       0.00900000       0.00900000       0.00900000       0.00900000       0.00900000       0.00900000       0.00900000       0.00900000       0.00900000       0.00900000       0.00900000       0.00900000       0.00900000       0.00900000       0.00900000       0.00900000       0.00900000       0.00900000       0.00900000       0.00900000       0.00900000       0.00900000       0.00900000
           0.00900000       0.00900000       0.00900000       0.00900000       0.00900000       0.00900000       0.00900000       0.00900000       0.00900000       0.00900000       0.00900000       0.00900000       0.00900000       0.00900000       0.00900000       0.00900000       0.00900000       0.00900000       0.00900000       0.00900000       0.00900000       0.00900000       0.00900000       0.00900000       0.00900000       0.00900000       0.00900000       0.00900000       0.00900000       0.00900000       0.00900000       0.00900000       0.00900000       0.00900000       0.00900000       0.00900000       0.00900000       0.00900000       0.00900000       0.00900000       0.00900000       0.00900000       0.00900000       0.00900000       0.00900000       0.00900000       0.00900000       0.00900000       0.00900000       0.00900000       0.00900000       0.00900000       0.00900000       0.00900000       0.00900000       0.00900000       0.00900000       0.00900000       0.00900000       0.00900000       0.00900000       0.00900000       0.00900000       0.00900000       0.00900000       0.00900000
           0.00900000       0.00900000       0.00900000       0.00900000       0.00900000       0.00900000       0.00900000       0.00900000       0.00900000       0.00900000       0.00900000       0.00900000       0.00900000       0.00900000       0.00900000       0.00900000       0.00900000       0.00900000       0.00900000       0.00900000       0.00900000       0.00900000       0.00900000       0.00900000       0.00900000       0.00900000       0.00900000       0.00900000       0.00900000       0.00900000       0.00900000       0.00900000       0.00900000       0.00900000       0.00900000       0.00900000       0.00900000       0.00900000       0.00900000       0.00900000       0.00900000       0.00900000       0.00900000       0.00900000       0.00900000       0.00900000       0.00900000       0.00900000       0.00900000       0.00900000       0.00900000       0.00900000       0.00900000       0.00900000       0.00900000       0.00900000       0.00900000       0.00900000       0.00900000       0.00900000       0.00900000       0.00900000       0.00900000       0.00900000       0.00900000       0.00900000
           0.00900000       0.00900000       0.00900000       0.00900000       0.00900000       0.00900000       0.00900000       0.00900000       0.00900000       0.00900000       0.00900000       0.00900000       0.00900000       0.00900000       0.00900000       0.00900000       0.00900000       0.00900000       0.00900000       0.00900000       0.00900000       0.00900000       0.00900000       0.00900000       0.00900000       0.00900000       0.00900000       0.00900000       0.00900000       0.00900000       0.00900000       0.00900000       0.00900000       0.00900000       0.00900000       0.00900000       0.00900000       0.00900000       0.00900000       0.00900000       0.00900000       0.00900000       0.00900000       0.00900000       0.00900000       0.00900000       0.00900000       0.00900000       0.00900000       0.00900000       0.00900000       0.00900000       0.00900000       0.00900000       0.00900000       0.00900000       0.00900000       0.00900000       0.00900000       0.00900000       0.00900000       0.00900000       0.00900000       0.00900000       0.00900000       0.00900000
           0.00900000       0.00900000       0.00900000       0.00900000       0.00900000       0.00900000       0.00900000       0.00900000       0.00900000       0.00900000       0.00900000       0.00900000       0.00900000       0.00900000       0.00900000       0.00900000       0.00900000       0.00900000       0.00900000       0.00900000       0.00900000       0.00900000       0.00900000       0.00900000       0.00900000       0.00900000       0.00900000       0.00900000       0.00900000       0.00900000       0.00900000       0.00900000       0.00900000       0.00900000       0.00900000       0.00900000       0.00900000       0.00900000       0.00900000       0.00900000       0.00900000       0.00900000       0.00900000       0.00900000       0.00900000       0.00900000       0.00900000       0.00900000       0.00900000       0.00900000       0.00900000       0.00900000       0.00900000       0.00900000       0.00900000       0.00900000       0.00900000       0.00900000       0.00900000       0.00900000       0.00900000       0.00900000       0.00900000       0.00900000       0.00900000       0.00900000
           0.00900000       0.00900000       0.00900000       0.00900000       0.00900000       0.00900000       0.00900000       0.00900000       0.00900000       0.00900000       0.00900000       0.00900000       0.00900000       0.00900000       0.00900000       0.00900000       0.00900000       0.00900000       0.00900000       0.00900000       0.00900000       0.00900000       0.00900000       0.00900000       0.00900000       0.00900000       0.00900000       0.00900000       0.00900000       0.00900000       0.00900000       0.00900000       0.00900000       0.00900000       0.00900000       0.00900000       0.00900000       0.00900000       0.00900000       0.00900000       0.00900000       0.00900000       0.00900000       0.00900000       0.00900000       0.00900000       0.00900000       0.00900000       0.00900000       0.00900000       0.00900000       0.00900000       0.00900000       0.00900000       0.00900000       0.00900000       0.00900000       0.00900000       0.00900000       0.00900000       0.00900000       0.00900000       0.00900000       0.00900000       0.00900000       0.00900000
           0.00900000       0.00900000       0.00900000       0.00900000       0.00900000       0.00900000       0.00900000       0.00900000       0.00900000       0.00900000       0.00900000       0.00900000       0.00900000       0.00900000       0.00900000       0.00900000       0.00900000       0.00900000       0.00900000       0.00900000       0.00900000       0.00900000       0.00900000       0.00900000       0.00900000       0.00900000       0.00900000       0.00900000       0.00900000       0.00900000       0.00900000       0.00900000       0.00900000       0.00900000       0.00900000       0.00900000       0.00900000       0.00900000       0.00900000       0.00900000       0.00900000       0.00900000       0.00900000       0.00900000       0.00900000       0.00900000       0.00900000       0.00900000       0.00900000       0.00900000       0.00900000       0.00900000       0.00900000       0.00900000       0.00900000       0.00900000       0.00900000       0.00900000       0.00900000       0.00900000       0.00900000       0.00900000       0.00900000       0.00900000       0.00900000       0.00900000
           0.00900000       0.00900000       0.00900000       0.00900000       0.00900000       0.00900000       0.00900000       0.00900000       0.00900000       0.00900000       0.00900000       0.00900000       0.00900000       0.00900000       0.00900000       0.00900000       0.00900000       0.00900000       0.00900000       0.00900000       0.00900000       0.00900000       0.00900000       0.00900000       0.00900000       0.00900000       0.00900000       0.00900000       0.00900000       0.00900000       0.00900000       0.00900000       0.00900000       0.00900000       0.00900000       0.00900000       0.00900000       0.00900000       0.00900000       0.00900000       0.00900000       0.00900000       0.00900000       0.00900000       0.00900000       0.00900000       0.00900000       0.00900000       0.00900000       0.00900000       0.00900000       0.00900000       0.00900000       0.00900000       0.00900000       0.00900000       0.00900000       0.00900000       0.00900000       0.00900000       0.00900000       0.00900000       0.00900000       0.00900000       0.00900000       0.00900000
           0.00900000       0.00900000       0.00900000       0.00900000       0.00900000       0.00900000       0.00900000       0.00900000       0.00900000       0.00900000       0.00900000       0.00900000       0.00900000       0.00900000       0.00900000       0.00900000       0.00900000       0.00900000       0.00900000       0.00900000       0.00900000       0.00900000       0.00900000       0.00900000       0.00900000       0.00900000       0.00900000       0.00900000       0.00900000       0.00900000       0.00900000       0.00900000       0.00900000       0.00900000       0.00900000       0.00900000       0.00900000       0.00900000       0.00900000       0.00900000       0.00900000       0.00900000       0.00900000       0.00900000       0.00900000       0.00900000       0.00900000       0.00900000       0.00900000       0.00900000       0.00900000       0.00900000       0.00900000       0.00900000       0.00900000       0.00900000       0.00900000       0.00900000       0.00900000       0.00900000       0.00900000       0.00900000       0.00900000       0.00900000       0.00900000       0.00900000
           0.00900000       0.00900000       0.00900000       0.00900000       0.00900000       0.00900000       0.00900000       0.00900000       0.00900000       0.00900000       0.00900000       0.00900000       0.00900000       0.00900000       0.00900000       0.00900000       0.00900000       0.00900000       0.00900000       0.00900000       0.00900000       0.00900000       0.00900000       0.00900000       0.00900000       0.00900000       0.00900000       0.00900000       0.00900000       0.00900000       0.00900000       0.00900000       0.00900000       0.00900000       0.00900000       0.00900000       0.00900000       0.00900000       0.00900000       0.00900000       0.00900000       0.00900000       0.00900000       0.00900000       0.00900000       0.00900000       0.00900000       0.00900000       0.00900000       0.00900000       0.00900000       0.00900000       0.00900000       0.00900000       0.00900000       0.00900000       0.00900000       0.00900000       0.00900000       0.00900000       0.00900000       0.00900000       0.00900000       0.00900000       0.00900000       0.00900000
           0.00900000       0.00900000       0.00900000       0.00900000       0.00900000       0.00900000       0.00900000       0.00900000       0.00900000       0.00900000       0.00900000       0.00900000       0.00900000       0.00900000       0.00900000       0.00900000       0.00900000       0.00900000       0.00900000       0.00900000       0.00900000       0.00900000       0.00900000       0.00900000       0.00900000       0.00900000       0.00900000       0.00900000       0.00900000       0.00900000       0.00900000       0.00900000       0.00900000       0.00900000       0.00900000       0.00900000       0.00900000       0.00900000       0.00900000       0.00900000       0.00900000       0.00900000       0.00900000       0.00900000       0.00900000       0.00900000       0.00900000       0.00900000       0.00900000       0.00900000       0.00900000       0.00900000       0.00900000       0.00900000       0.00900000       0.00900000       0.00900000       0.00900000       0.00900000       0.00900000       0.00900000       0.00900000       0.00900000       0.00900000       0.00900000       0.00900000
           0.00900000       0.00900000       0.00900000       0.00900000       0.00900000       0.00900000       0.00900000       0.00900000       0.00900000       0.00900000       0.00900000       0.00900000       0.00900000       0.00900000       0.00900000       0.00900000       0.00900000       0.00900000       0.00900000       0.00900000       0.00900000       0.00900000       0.00900000       0.00900000       0.00900000       0.00900000       0.00900000       0.00900000       0.00900000       0.00900000       0.00900000       0.00900000       0.00900000       0.00900000       0.00900000       0.00900000       0.00900000       0.00900000       0.00900000       0.00900000       0.00900000       0.00900000       0.00900000       0.00900000       0.00900000       0.00900000       0.00900000       0.00900000       0.00900000       0.00900000       0.00900000       0.00900000       0.00900000       0.00900000       0.00900000       0.00900000       0.00900000       0.00900000       0.00900000       0.00900000       0.00900000       0.00900000       0.00900000       0.00900000       0.00900000       0.00900000