# File generated by Flopy version 3.6.0 on 03/13/2024 at 12:03:44.
BEGIN options
  SAVE_FLOWS
END options

BEGIN packages
  RIV6  Gondebeek_SS.riv  riv
  RCH6  Gondebeek_SS.rcha  rcha_0
  STO6  Gondebeek_SS.sto  sto
  NPF6  Gondebeek_SS.npf  npf
  DIS6  Gondebeek_SS.dis  dis
  IC6  Gondebeek_SS.ic  ic
  OC6  Gondebeek_SS.oc  oc
  DRN6  Gondebeek_SS.drn  drn
END packages

