# File generated by Flopy version 3.6.0 on 03/28/2024 at 12:28:18.
BEGIN options
  PRINT_OPTION  summary
  COMPLEXITY  simple
END options

