# File generated by Flopy version 3.6.0 on 03/05/2024 at 10:49:25.
BEGIN options
  BUDGET  FILEOUT  Gondebeek_SS.cbc
  HEAD  FILEOUT  Gondebeek_SS.hds
END options

BEGIN period  1
  SAVE  HEAD  LAST
  SAVE  BUDGET  LAST
END period  1

