# File generated by Flopy version 3.6.0 on 03/28/2024 at 12:28:18.
BEGIN options
END options

BEGIN timing
  TDIS6  Gondebeek_SS.tdis
END timing

BEGIN models
  gwf6  Gondebeek_SS.nam  Gondebeek_SS
END models

BEGIN exchanges
END exchanges

BEGIN solutiongroup  1
  ims6  Gondebeek_SS.ims  Gondebeek_SS
END solutiongroup  1

