# File generated by Flopy version 3.6.0 on 03/10/2024 at 14:39:06.
BEGIN griddata
  strt  LAYERED
    OPEN/CLOSE  'Gondebeek_SS.ic_strt_layer1.txt'  FACTOR  1.0
    OPEN/CLOSE  'Gondebeek_SS.ic_strt_layer2.txt'  FACTOR  1.0
    OPEN/CLOSE  'Gondebeek_SS.ic_strt_layer3.txt'  FACTOR  1.0
    OPEN/CLOSE  'Gondebeek_SS.ic_strt_layer4.txt'  FACTOR  1.0
END griddata

