# File generated by Flopy version 3.6.0 on 03/10/2024 at 14:39:06.
BEGIN options
  XORIGIN  1.05100000E+05
  YORIGIN  1.77000000E+05
END options

BEGIN dimensions
  NLAY  4
  NROW  116
  NCOL  66
END dimensions

BEGIN griddata
  delr
    OPEN/CLOSE  'Gondebeek_SS.dis_delr.txt'  FACTOR  1.0
  delc
    OPEN/CLOSE  'Gondebeek_SS.dis_delc.txt'  FACTOR  1.0
  top
    OPEN/CLOSE  'Gondebeek_SS.dis_top.txt'  FACTOR  1.0
  botm  LAYERED
    OPEN/CLOSE  'Gondebeek_SS.dis_botm_layer1.txt'  FACTOR  1.0
    OPEN/CLOSE  'Gondebeek_SS.dis_botm_layer2.txt'  FACTOR  1.0
    OPEN/CLOSE  'Gondebeek_SS.dis_botm_layer3.txt'  FACTOR  1.0
    OPEN/CLOSE  'Gondebeek_SS.dis_botm_layer4.txt'  FACTOR  1.0
  idomain  LAYERED
    OPEN/CLOSE  'Gondebeek_SS.dis_idomain_layer1.txt'  FACTOR  1
    OPEN/CLOSE  'Gondebeek_SS.dis_idomain_layer2.txt'  FACTOR  1
    OPEN/CLOSE  'Gondebeek_SS.dis_idomain_layer3.txt'  FACTOR  1
    OPEN/CLOSE  'Gondebeek_SS.dis_idomain_layer4.txt'  FACTOR  1
END griddata

