# File generated by Flopy version 3.6.0 on 03/10/2024 at 14:39:06.
BEGIN options
  PRINT_OPTION  summary
  COMPLEXITY  simple
END options

