# File generated by Flopy version 3.6.0 on 03/26/2024 at 10:53:15.
BEGIN options
  READASARRAYS
END options

BEGIN period  1
  recharge
    OPEN/CLOSE  'Gondebeek_SS.rcha_recharge_1.txt'  FACTOR  1.0
END period  1

