# File generated by Flopy version 3.6.0 on 03/28/2024 at 12:38:04.
BEGIN options
  SAVE_FLOWS
END options

BEGIN dimensions
  MAXBOUND  3586
END dimensions

BEGIN period  1
    OPEN/CLOSE  'Gondebeek_SS.drn_stress_period_data_1.txt'
END period  1

