# File generated by Flopy version 3.6.0 on 03/25/2024 at 19:48:45.
BEGIN options
  READASARRAYS
END options

BEGIN period  1
  recharge
    OPEN/CLOSE  'Gondebeek_SS.rcha_recharge_1.txt'  FACTOR  1.0
END period  1

