# File generated by Flopy version 3.6.0 on 03/19/2024 at 17:16:18.
BEGIN options
  SAVE_FLOWS
END options

BEGIN packages
  oc6  Gondebeek_SS.oc  oc
  ic6  Gondebeek_SS.ic  ic
  dis6  Gondebeek_SS.dis  dis
  npf6  Gondebeek_SS.npf  npf
  sto6  Gondebeek_SS.sto  sto
  rch6  Gondebeek_SS.rcha  rcha_0
  riv6  Gondebeek_SS.riv  riv
  drn6  Gondebeek_SS.drn  drn
END packages

