# File generated by Flopy version 3.6.0 on 03/19/2024 at 17:16:18.
BEGIN options
  BUDGET  FILEOUT  Gondebeek_SS.cbc
  HEAD  FILEOUT  Gondebeek_SS.hds
END options

BEGIN period  1
  SAVE  head  last
  SAVE  budget  last
END period  1

