# File generated by Flopy version 3.6.0 on 03/15/2024 at 15:55:45.
BEGIN options
  TIME_UNITS  days
END options

BEGIN dimensions
  NPER  1
END dimensions

BEGIN perioddata
       1.00000000  1       2.00000000
END perioddata

