# File generated by Flopy version 3.6.0 on 03/15/2024 at 15:55:45.
BEGIN options
END options

BEGIN griddata
  iconvert
    OPEN/CLOSE  'Gondebeek_SS.sto_iconvert.txt'  FACTOR  1
  ss  LAYERED
    OPEN/CLOSE  'Gondebeek_SS.sto_ss_layer1.txt'  FACTOR  1.0
    OPEN/CLOSE  'Gondebeek_SS.sto_ss_layer2.txt'  FACTOR  1.0
    OPEN/CLOSE  'Gondebeek_SS.sto_ss_layer3.txt'  FACTOR  1.0
    OPEN/CLOSE  'Gondebeek_SS.sto_ss_layer4.txt'  FACTOR  1.0
  sy  LAYERED
    OPEN/CLOSE  'Gondebeek_SS.sto_sy_layer1.txt'  FACTOR  1.0
    OPEN/CLOSE  'Gondebeek_SS.sto_sy_layer2.txt'  FACTOR  1.0
    OPEN/CLOSE  'Gondebeek_SS.sto_sy_layer3.txt'  FACTOR  1.0
    OPEN/CLOSE  'Gondebeek_SS.sto_sy_layer4.txt'  FACTOR  1.0
END griddata

BEGIN period  1
  STEADY-STATE
END period  1

