# Name file for MODFLOW-2005, generated by Flopy version 3.5.0.
#xll:105100.0; yll:177000.0; rotation:0.0; units:meters; lenuni:2; start_datetime:1-1-1970
LIST               2  Gondebeek.list
DIS               11  Gondebeek.dis
LPF               15  Gondebeek.lpf
BAS6              13  Gondebeek.bas
DATA(BINARY)      50  Gondebeek.cbc REPLACE
