# DIS package for MODFLOW-2005 generated by Flopy 3.6.0
         4       116        66       365         4         2
  0  0  0  0
CONSTANT    1.000000E+02                           #delr                          
CONSTANT    1.000000E+02                           #delc                          
INTERNAL               1     (FREE) -1 #model_top                     
  -1.000000E+09  -1.000000E+09  -1.000000E+09  -1.000000E+09  -1.000000E+09  -1.000000E+09  -1.000000E+09  -1.000000E+09  -1.000000E+09  -1.000000E+09  -1.000000E+09  -1.000000E+09  -1.000000E+09  -1.000000E+09  -1.000000E+09  -1.000000E+09  -1.000000E+09  -1.000000E+09  -1.000000E+09  -1.000000E+09  -1.000000E+09  -1.000000E+09  -1.000000E+09  -1.000000E+09  -1.000000E+09  -1.000000E+09  -1.000000E+09  -1.000000E+09  -1.000000E+09  -1.000000E+09  -1.000000E+09  -1.000000E+09  -1.000000E+09  -1.000000E+09  -1.000000E+09  -1.000000E+09  -1.000000E+09  -1.000000E+09  -1.000000E+09  -1.000000E+09  -1.000000E+09  -1.000000E+09  -1.000000E+09  -1.000000E+09  -1.000000E+09  -1.000000E+09  -1.000000E+09  -1.000000E+09  -1.000000E+09  -1.000000E+09  -1.000000E+09  -1.000000E+09  -1.000000E+09  -1.000000E+09  -1.000000E+09  -1.000000E+09  -1.000000E+09  -1.000000E+09  -1.000000E+09  -1.000000E+09  -1.000000E+09  -1.000000E+09  -1.000000E+09  -1.000000E+09  -1.000000E+09  -1.000000E+09
  -1.000000E+09  -1.000000E+09  -1.000000E+09  -1.000000E+09  -1.000000E+09  -1.000000E+09  -1.000000E+09  -1.000000E+09  -1.000000E+09  -1.000000E+09  -1.000000E+09  -1.000000E+09  -1.000000E+09  -1.000000E+09  -1.000000E+09  -1.000000E+09  -1.000000E+09  -1.000000E+09  -1.000000E+09  -1.000000E+09  -1.000000E+09  -1.000000E+09  -1.000000E+09  -1.000000E+09  -1.000000E+09  -1.000000E+09  -1.000000E+09  -1.000000E+09  -1.000000E+09  -1.000000E+09  -1.000000E+09  -1.000000E+09  -1.000000E+09  -1.000000E+09  -1.000000E+09  -1.000000E+09  -1.000000E+09  -1.000000E+09  -1.000000E+09  -1.000000E+09  -1.000000E+09  -1.000000E+09  -1.000000E+09  -1.000000E+09  -1.000000E+09  -1.000000E+09  -1.000000E+09  -1.000000E+09  -1.000000E+09  -1.000000E+09  -1.000000E+09  -1.000000E+09   5.850000E+00  -1.000000E+09  -1.000000E+09  -1.000000E+09  -1.000000E+09  -1.000000E+09  -1.000000E+09  -1.000000E+09  -1.000000E+09  -1.000000E+09  -1.000000E+09  -1.000000E+09  -1.000000E+09  -1.000000E+09
  -1.000000E+09  -1.000000E+09  -1.000000E+09  -1.000000E+09  -1.000000E+09  -1.000000E+09  -1.000000E+09  -1.000000E+09  -1.000000E+09  -1.000000E+09  -1.000000E+09  -1.000000E+09  -1.000000E+09  -1.000000E+09  -1.000000E+09  -1.000000E+09  -1.000000E+09  -1.000000E+09  -1.000000E+09  -1.000000E+09  -1.000000E+09  -1.000000E+09  -1.000000E+09  -1.000000E+09  -1.000000E+09  -1.000000E+09  -1.000000E+09  -1.000000E+09  -1.000000E+09  -1.000000E+09  -1.000000E+09  -1.000000E+09  -1.000000E+09  -1.000000E+09  -1.000000E+09  -1.000000E+09  -1.000000E+09  -1.000000E+09  -1.000000E+09  -1.000000E+09  -1.000000E+09  -1.000000E+09  -1.000000E+09  -1.000000E+09  -1.000000E+09  -1.000000E+09  -1.000000E+09  -1.000000E+09  -1.000000E+09  -1.000000E+09  -1.000000E+09  -1.000000E+09   1.042000E+01  -1.000000E+09  -1.000000E+09  -1.000000E+09  -1.000000E+09  -1.000000E+09  -1.000000E+09  -1.000000E+09  -1.000000E+09  -1.000000E+09  -1.000000E+09  -1.000000E+09  -1.000000E+09  -1.000000E+09
  -1.000000E+09  -1.000000E+09  -1.000000E+09  -1.000000E+09  -1.000000E+09  -1.000000E+09  -1.000000E+09  -1.000000E+09  -1.000000E+09  -1.000000E+09  -1.000000E+09  -1.000000E+09  -1.000000E+09  -1.000000E+09  -1.000000E+09  -1.000000E+09  -1.000000E+09  -1.000000E+09  -1.000000E+09  -1.000000E+09  -1.000000E+09  -1.000000E+09  -1.000000E+09  -1.000000E+09  -1.000000E+09  -1.000000E+09  -1.000000E+09  -1.000000E+09  -1.000000E+09  -1.000000E+09  -1.000000E+09  -1.000000E+09  -1.000000E+09  -1.000000E+09  -1.000000E+09  -1.000000E+09  -1.000000E+09  -1.000000E+09  -1.000000E+09  -1.000000E+09  -1.000000E+09  -1.000000E+09  -1.000000E+09  -1.000000E+09  -1.000000E+09  -1.000000E+09  -1.000000E+09  -1.000000E+09  -1.000000E+09  -1.000000E+09  -1.000000E+09  -1.000000E+09   1.099000E+01   1.063000E+01  -1.000000E+09  -1.000000E+09  -1.000000E+09  -1.000000E+09  -1.000000E+09  -1.000000E+09  -1.000000E+09  -1.000000E+09  -1.000000E+09  -1.000000E+09  -1.000000E+09  -1.000000E+09
  -1.000000E+09  -1.000000E+09  -1.000000E+09  -1.000000E+09  -1.000000E+09  -1.000000E+09  -1.000000E+09  -1.000000E+09  -1.000000E+09  -1.000000E+09  -1.000000E+09  -1.000000E+09  -1.000000E+09  -1.000000E+09  -1.000000E+09  -1.000000E+09  -1.000000E+09  -1.000000E+09  -1.000000E+09  -1.000000E+09  -1.000000E+09  -1.000000E+09  -1.000000E+09  -1.000000E+09  -1.000000E+09  -1.000000E+09  -1.000000E+09  -1.000000E+09  -1.000000E+09  -1.000000E+09  -1.000000E+09  -1.000000E+09  -1.000000E+09  -1.000000E+09  -1.000000E+09  -1.000000E+09  -1.000000E+09  -1.000000E+09  -1.000000E+09  -1.000000E+09  -1.000000E+09  -1.000000E+09  -1.000000E+09  -1.000000E+09  -1.000000E+09  -1.000000E+09  -1.000000E+09  -1.000000E+09  -1.000000E+09  -1.000000E+09  -1.000000E+09   1.124000E+01   1.056000E+01   1.042000E+01   8.198544E+00  -1.000000E+09  -1.000000E+09  -1.000000E+09  -1.000000E+09  -1.000000E+09  -1.000000E+09  -1.000000E+09  -1.000000E+09  -1.000000E+09  -1.000000E+09  -1.000000E+09
  -1.000000E+09  -1.000000E+09  -1.000000E+09  -1.000000E+09  -1.000000E+09  -1.000000E+09  -1.000000E+09  -1.000000E+09  -1.000000E+09  -1.000000E+09  -1.000000E+09  -1.000000E+09  -1.000000E+09  -1.000000E+09  -1.000000E+09  -1.000000E+09  -1.000000E+09  -1.000000E+09  -1.000000E+09  -1.000000E+09  -1.000000E+09  -1.000000E+09  -1.000000E+09  -1.000000E+09  -1.000000E+09  -1.000000E+09  -1.000000E+09  -1.000000E+09  -1.000000E+09  -1.000000E+09  -1.000000E+09  -1.000000E+09  -1.000000E+09  -1.000000E+09  -1.000000E+09  -1.000000E+09  -1.000000E+09  -1.000000E+09  -1.000000E+09  -1.000000E+09  -1.000000E+09  -1.000000E+09  -1.000000E+09  -1.000000E+09  -1.000000E+09  -1.000000E+09  -1.000000E+09  -1.000000E+09  -1.000000E+09  -1.000000E+09  -1.000000E+09   1.096000E+01   1.045000E+01   1.010115E+01   9.318442E+00   8.650000E+00  -1.000000E+09  -1.000000E+09  -1.000000E+09  -1.000000E+09  -1.000000E+09  -1.000000E+09  -1.000000E+09  -1.000000E+09  -1.000000E+09  -1.000000E+09
  -1.000000E+09  -1.000000E+09  -1.000000E+09  -1.000000E+09  -1.000000E+09  -1.000000E+09  -1.000000E+09  -1.000000E+09  -1.000000E+09  -1.000000E+09  -1.000000E+09  -1.000000E+09  -1.000000E+09  -1.000000E+09  -1.000000E+09  -1.000000E+09  -1.000000E+09  -1.000000E+09  -1.000000E+09  -1.000000E+09  -1.000000E+09  -1.000000E+09  -1.000000E+09  -1.000000E+09  -1.000000E+09  -1.000000E+09  -1.000000E+09  -1.000000E+09  -1.000000E+09  -1.000000E+09  -1.000000E+09  -1.000000E+09  -1.000000E+09  -1.000000E+09  -1.000000E+09  -1.000000E+09  -1.000000E+09  -1.000000E+09  -1.000000E+09  -1.000000E+09  -1.000000E+09  -1.000000E+09  -1.000000E+09  -1.000000E+09  -1.000000E+09  -1.000000E+09  -1.000000E+09  -1.000000E+09  -1.000000E+09  -1.000000E+09   1.405000E+01   1.046000E+01   1.000000E+01   9.330000E+00   8.960000E+00   7.460000E+00   6.570000E+00   5.950000E+00   6.880000E+00  -1.000000E+09  -1.000000E+09  -1.000000E+09  -1.000000E+09  -1.000000E+09  -1.000000E+09  -1.000000E+09
  -1.000000E+09  -1.000000E+09  -1.000000E+09  -1.000000E+09  -1.000000E+09  -1.000000E+09  -1.000000E+09  -1.000000E+09  -1.000000E+09  -1.000000E+09  -1.000000E+09  -1.000000E+09  -1.000000E+09  -1.000000E+09  -1.000000E+09  -1.000000E+09  -1.000000E+09  -1.000000E+09  -1.000000E+09  -1.000000E+09  -1.000000E+09  -1.000000E+09  -1.000000E+09  -1.000000E+09  -1.000000E+09  -1.000000E+09  -1.000000E+09  -1.000000E+09  -1.000000E+09  -1.000000E+09  -1.000000E+09  -1.000000E+09  -1.000000E+09  -1.000000E+09  -1.000000E+09  -1.000000E+09  -1.000000E+09  -1.000000E+09  -1.000000E+09  -1.000000E+09  -1.000000E+09  -1.000000E+09  -1.000000E+09  -1.000000E+09  -1.000000E+09  -1.000000E+09  -1.000000E+09  -1.000000E+09  -1.000000E+09  -1.000000E+09   1.101000E+01   1.081000E+01   9.570000E+00   9.300000E+00   8.200000E+00   7.850000E+00   8.430000E+00   9.050000E+00   7.020000E+00   5.320000E+00  -1.000000E+09  -1.000000E+09  -1.000000E+09  -1.000000E+09  -1.000000E+09  -1.000000E+09
  -1.000000E+09  -1.000000E+09  -1.000000E+09  -1.000000E+09  -1.000000E+09  -1.000000E+09  -1.000000E+09  -1.000000E+09  -1.000000E+09  -1.000000E+09  -1.000000E+09  -1.000000E+09  -1.000000E+09  -1.000000E+09  -1.000000E+09  -1.000000E+09  -1.000000E+09  -1.000000E+09  -1.000000E+09  -1.000000E+09  -1.000000E+09  -1.000000E+09  -1.000000E+09  -1.000000E+09  -1.000000E+09  -1.000000E+09  -1.000000E+09  -1.000000E+09  -1.000000E+09  -1.000000E+09  -1.000000E+09  -1.000000E+09  -1.000000E+09  -1.000000E+09  -1.000000E+09  -1.000000E+09  -1.000000E+09  -1.000000E+09  -1.000000E+09  -1.000000E+09  -1.000000E+09  -1.000000E+09  -1.000000E+09  -1.000000E+09  -1.000000E+09  -1.000000E+09  -1.000000E+09  -1.000000E+09  -1.000000E+09   1.230000E+01   1.132000E+01   9.850000E+00   8.810000E+00   1.346000E+01   8.460000E+00   8.700000E+00   8.640000E+00   9.240000E+00   8.990000E+00  -1.000000E+09  -1.000000E+09  -1.000000E+09  -1.000000E+09  -1.000000E+09  -1.000000E+09  -1.000000E+09
  -1.000000E+09  -1.000000E+09  -1.000000E+09  -1.000000E+09  -1.000000E+09  -1.000000E+09  -1.000000E+09  -1.000000E+09  -1.000000E+09  -1.000000E+09  -1.000000E+09  -1.000000E+09  -1.000000E+09  -1.000000E+09  -1.000000E+09  -1.000000E+09  -1.000000E+09  -1.000000E+09  -1.000000E+09  -1.000000E+09  -1.000000E+09  -1.000000E+09  -1.000000E+09  -1.000000E+09  -1.000000E+09  -1.000000E+09  -1.000000E+09  -1.000000E+09  -1.000000E+09  -1.000000E+09  -1.000000E+09  -1.000000E+09  -1.000000E+09  -1.000000E+09  -1.000000E+09  -1.000000E+09  -1.000000E+09  -1.000000E+09  -1.000000E+09  -1.000000E+09  -1.000000E+09  -1.000000E+09  -1.000000E+09  -1.000000E+09  -1.000000E+09  -1.000000E+09  -1.000000E+09   1.705000E+01   1.503000E+01   1.324000E+01   1.255000E+01   1.076000E+01   8.970000E+00   6.140000E+00   1.451000E+01   1.144000E+01   1.031000E+01  -1.000000E+09  -1.000000E+09  -1.000000E+09  -1.000000E+09  -1.000000E+09  -1.000000E+09  -1.000000E+09  -1.000000E+09  -1.000000E+09
  -1.000000E+09  -1.000000E+09  -1.000000E+09  -1.000000E+09  -1.000000E+09  -1.000000E+09  -1.000000E+09  -1.000000E+09  -1.000000E+09  -1.000000E+09  -1.000000E+09  -1.000000E+09  -1.000000E+09  -1.000000E+09  -1.000000E+09  -1.000000E+09  -1.000000E+09  -1.000000E+09  -1.000000E+09  -1.000000E+09  -1.000000E+09  -1.000000E+09  -1.000000E+09  -1.000000E+09  -1.000000E+09  -1.000000E+09  -1.000000E+09  -1.000000E+09  -1.000000E+09  -1.000000E+09  -1.000000E+09  -1.000000E+09  -1.000000E+09  -1.000000E+09  -1.000000E+09  -1.000000E+09  -1.000000E+09  -1.000000E+09  -1.000000E+09  -1.000000E+09  -1.000000E+09  -1.000000E+09  -1.000000E+09  -1.000000E+09  -1.000000E+09   1.868000E+01   1.815000E+01   1.690000E+01   1.610000E+01   1.453000E+01   1.253000E+01   1.095000E+01   8.890000E+00   6.990000E+00   1.124000E+01   1.418000E+01   1.153000E+01  -1.000000E+09  -1.000000E+09  -1.000000E+09  -1.000000E+09  -1.000000E+09  -1.000000E+09  -1.000000E+09  -1.000000E+09  -1.000000E+09
  -1.000000E+09  -1.000000E+09  -1.000000E+09  -1.000000E+09  -1.000000E+09  -1.000000E+09  -1.000000E+09  -1.000000E+09  -1.000000E+09  -1.000000E+09  -1.000000E+09  -1.000000E+09  -1.000000E+09  -1.000000E+09  -1.000000E+09  -1.000000E+09  -1.000000E+09  -1.000000E+09  -1.000000E+09  -1.000000E+09  -1.000000E+09  -1.000000E+09  -1.000000E+09  -1.000000E+09  -1.000000E+09  -1.000000E+09  -1.000000E+09  -1.000000E+09  -1.000000E+09  -1.000000E+09  -1.000000E+09  -1.000000E+09  -1.000000E+09  -1.000000E+09  -1.000000E+09  -1.000000E+09  -1.000000E+09  -1.000000E+09  -1.000000E+09  -1.000000E+09  -1.000000E+09  -1.000000E+09  -1.000000E+09   2.129000E+01   2.024000E+01   1.942000E+01   1.821000E+01   1.702000E+01   1.620000E+01   2.127000E+01   1.264000E+01   1.044000E+01   9.370000E+00   6.747551E+00   1.107000E+01   1.089000E+01   1.099000E+01  -1.000000E+09  -1.000000E+09  -1.000000E+09  -1.000000E+09  -1.000000E+09  -1.000000E+09  -1.000000E+09  -1.000000E+09  -1.000000E+09
  -1.000000E+09  -1.000000E+09  -1.000000E+09  -1.000000E+09  -1.000000E+09  -1.000000E+09  -1.000000E+09  -1.000000E+09  -1.000000E+09  -1.000000E+09  -1.000000E+09  -1.000000E+09  -1.000000E+09  -1.000000E+09  -1.000000E+09  -1.000000E+09  -1.000000E+09  -1.000000E+09  -1.000000E+09  -1.000000E+09  -1.000000E+09  -1.000000E+09  -1.000000E+09  -1.000000E+09  -1.000000E+09  -1.000000E+09  -1.000000E+09  -1.000000E+09  -1.000000E+09  -1.000000E+09  -1.000000E+09  -1.000000E+09  -1.000000E+09  -1.000000E+09  -1.000000E+09  -1.000000E+09  -1.000000E+09  -1.000000E+09  -1.000000E+09  -1.000000E+09  -1.000000E+09  -1.000000E+09   2.367000E+01   2.257000E+01   2.144404E+01   2.005000E+01   1.923000E+01   1.717000E+01   1.647000E+01   1.475000E+01   1.694000E+01   1.084000E+01   6.735878E+00   6.721519E+00   1.096000E+01   1.090000E+01   1.056000E+01  -1.000000E+09  -1.000000E+09  -1.000000E+09  -1.000000E+09  -1.000000E+09  -1.000000E+09  -1.000000E+09  -1.000000E+09  -1.000000E+09
  -1.000000E+09  -1.000000E+09  -1.000000E+09  -1.000000E+09  -1.000000E+09  -1.000000E+09  -1.000000E+09  -1.000000E+09  -1.000000E+09  -1.000000E+09  -1.000000E+09  -1.000000E+09  -1.000000E+09  -1.000000E+09  -1.000000E+09  -1.000000E+09  -1.000000E+09  -1.000000E+09  -1.000000E+09  -1.000000E+09  -1.000000E+09  -1.000000E+09  -1.000000E+09  -1.000000E+09  -1.000000E+09  -1.000000E+09  -1.000000E+09  -1.000000E+09  -1.000000E+09  -1.000000E+09  -1.000000E+09  -1.000000E+09  -1.000000E+09  -1.000000E+09  -1.000000E+09  -1.000000E+09  -1.000000E+09  -1.000000E+09  -1.000000E+09  -1.000000E+09   2.413000E+01   2.543000E+01   2.432000E+01   2.246635E+01   2.139054E+01   2.055000E+01   1.884000E+01   1.736000E+01   1.617000E+01   1.477000E+01   1.259000E+01   1.104000E+01   9.880000E+00   9.930000E+00   9.490000E+00   1.047000E+01   1.011000E+01  -1.000000E+09  -1.000000E+09  -1.000000E+09  -1.000000E+09  -1.000000E+09  -1.000000E+09  -1.000000E+09  -1.000000E+09  -1.000000E+09
  -1.000000E+09  -1.000000E+09  -1.000000E+09  -1.000000E+09  -1.000000E+09  -1.000000E+09  -1.000000E+09  -1.000000E+09  -1.000000E+09  -1.000000E+09  -1.000000E+09  -1.000000E+09  -1.000000E+09  -1.000000E+09  -1.000000E+09  -1.000000E+09  -1.000000E+09  -1.000000E+09  -1.000000E+09  -1.000000E+09  -1.000000E+09  -1.000000E+09  -1.000000E+09  -1.000000E+09  -1.000000E+09  -1.000000E+09  -1.000000E+09  -1.000000E+09  -1.000000E+09  -1.000000E+09  -1.000000E+09  -1.000000E+09  -1.000000E+09  -1.000000E+09  -1.000000E+09  -1.000000E+09  -1.000000E+09  -1.000000E+09  -1.000000E+09   2.481000E+01   2.450000E+01   2.452000E+01   2.427000E+01   2.430000E+01   2.151000E+01   1.873020E+01   1.801000E+01   1.691000E+01   1.560000E+01   1.425000E+01   1.338000E+01   1.413000E+01   6.765718E+00   2.016000E+01   8.900000E+00   1.059000E+01   1.047000E+01  -1.000000E+09  -1.000000E+09  -1.000000E+09  -1.000000E+09  -1.000000E+09  -1.000000E+09  -1.000000E+09  -1.000000E+09  -1.000000E+09
  -1.000000E+09  -1.000000E+09  -1.000000E+09  -1.000000E+09  -1.000000E+09  -1.000000E+09  -1.000000E+09  -1.000000E+09  -1.000000E+09  -1.000000E+09  -1.000000E+09  -1.000000E+09  -1.000000E+09  -1.000000E+09  -1.000000E+09  -1.000000E+09  -1.000000E+09  -1.000000E+09  -1.000000E+09  -1.000000E+09  -1.000000E+09  -1.000000E+09  -1.000000E+09  -1.000000E+09  -1.000000E+09  -1.000000E+09  -1.000000E+09  -1.000000E+09  -1.000000E+09  -1.000000E+09  -1.000000E+09  -1.000000E+09  -1.000000E+09  -1.000000E+09  -1.000000E+09  -1.000000E+09  -1.000000E+09  -1.000000E+09   2.563000E+01   2.523000E+01   2.474000E+01   2.434000E+01   2.346000E+01   2.236000E+01   2.083000E+01   2.336000E+01   1.783352E+01   1.694000E+01   1.563000E+01   1.431000E+01   1.171000E+01   1.019000E+01   8.850000E+00   8.040000E+00   1.320000E+01   1.014000E+01   1.055000E+01   1.123999E+01  -1.000000E+09  -1.000000E+09  -1.000000E+09  -1.000000E+09  -1.000000E+09  -1.000000E+09  -1.000000E+09  -1.000000E+09
  -1.000000E+09  -1.000000E+09  -1.000000E+09  -1.000000E+09  -1.000000E+09  -1.000000E+09  -1.000000E+09  -1.000000E+09  -1.000000E+09  -1.000000E+09  -1.000000E+09  -1.000000E+09  -1.000000E+09  -1.000000E+09  -1.000000E+09  -1.000000E+09  -1.000000E+09  -1.000000E+09  -1.000000E+09  -1.000000E+09  -1.000000E+09  -1.000000E+09  -1.000000E+09  -1.000000E+09  -1.000000E+09  -1.000000E+09  -1.000000E+09  -1.000000E+09  -1.000000E+09  -1.000000E+09  -1.000000E+09  -1.000000E+09  -1.000000E+09  -1.000000E+09  -1.000000E+09  -1.000000E+09  -1.000000E+09  -1.000000E+09   2.499000E+01   2.466000E+01   2.464000E+01   2.374000E+01   2.211000E+01   2.185000E+01   2.078000E+01   1.932000E+01   2.161000E+01   1.798000E+01   1.503000E+01   1.373000E+01   1.212000E+01   1.235000E+01   1.173000E+01   7.600000E+00   7.102688E+00   7.086989E+00   1.014000E+01   1.102000E+01  -1.000000E+09  -1.000000E+09  -1.000000E+09  -1.000000E+09  -1.000000E+09  -1.000000E+09  -1.000000E+09  -1.000000E+09
  -1.000000E+09  -1.000000E+09  -1.000000E+09  -1.000000E+09  -1.000000E+09  -1.000000E+09  -1.000000E+09  -1.000000E+09  -1.000000E+09  -1.000000E+09  -1.000000E+09  -1.000000E+09  -1.000000E+09  -1.000000E+09  -1.000000E+09  -1.000000E+09  -1.000000E+09  -1.000000E+09  -1.000000E+09  -1.000000E+09  -1.000000E+09  -1.000000E+09  -1.000000E+09  -1.000000E+09  -1.000000E+09  -1.000000E+09  -1.000000E+09  -1.000000E+09  -1.000000E+09  -1.000000E+09  -1.000000E+09  -1.000000E+09  -1.000000E+09  -1.000000E+09  -1.000000E+09  -1.000000E+09  -1.000000E+09  -1.000000E+09   2.256000E+01   2.334000E+01   2.339000E+01   2.270000E+01   2.208000E+01   2.106000E+01   1.986000E+01   1.915000E+01   1.753516E+01   1.658000E+01   2.200000E+01   1.422000E+01   1.349000E+01   1.271000E+01   1.077000E+01   9.720000E+00   8.850000E+00   6.982792E+00   7.038403E+00   1.857000E+01  -1.000000E+09  -1.000000E+09  -1.000000E+09  -1.000000E+09  -1.000000E+09  -1.000000E+09  -1.000000E+09  -1.000000E+09
  -1.000000E+09  -1.000000E+09  -1.000000E+09  -1.000000E+09  -1.000000E+09  -1.000000E+09  -1.000000E+09  -1.000000E+09  -1.000000E+09  -1.000000E+09  -1.000000E+09  -1.000000E+09  -1.000000E+09  -1.000000E+09  -1.000000E+09  -1.000000E+09  -1.000000E+09  -1.000000E+09  -1.000000E+09  -1.000000E+09  -1.000000E+09  -1.000000E+09  -1.000000E+09  -1.000000E+09  -1.000000E+09  -1.000000E+09  -1.000000E+09  -1.000000E+09  -1.000000E+09  -1.000000E+09  -1.000000E+09  -1.000000E+09  -1.000000E+09  -1.000000E+09  -1.000000E+09  -1.000000E+09  -1.000000E+09  -1.000000E+09   2.166000E+01   2.256000E+01   2.213000E+01   2.031000E+01   2.091000E+01   1.945000E+01   1.882000E+01   1.737000E+01   1.639000E+01   1.635000E+01   1.634000E+01   1.571000E+01   2.140000E+01   1.269000E+01   1.136000E+01   9.950000E+00   8.980000E+00   9.690000E+00   1.257000E+01   1.838000E+01  -1.000000E+09  -1.000000E+09  -1.000000E+09  -1.000000E+09  -1.000000E+09  -1.000000E+09  -1.000000E+09  -1.000000E+09
  -1.000000E+09  -1.000000E+09  -1.000000E+09  -1.000000E+09  -1.000000E+09  -1.000000E+09  -1.000000E+09  -1.000000E+09  -1.000000E+09  -1.000000E+09  -1.000000E+09  -1.000000E+09  -1.000000E+09  -1.000000E+09  -1.000000E+09  -1.000000E+09  -1.000000E+09  -1.000000E+09  -1.000000E+09  -1.000000E+09  -1.000000E+09  -1.000000E+09  -1.000000E+09  -1.000000E+09  -1.000000E+09  -1.000000E+09  -1.000000E+09  -1.000000E+09  -1.000000E+09  -1.000000E+09  -1.000000E+09  -1.000000E+09  -1.000000E+09  -1.000000E+09  -1.000000E+09  -1.000000E+09  -1.000000E+09  -1.000000E+09  -1.000000E+09   2.232000E+01   1.996000E+01   2.037000E+01   2.001000E+01   1.886000E+01   1.771000E+01   1.779000E+01   1.807000E+01   1.804000E+01   1.692000E+01   1.680000E+01   1.520000E+01   1.326000E+01   1.807000E+01   8.730000E+00   9.710000E+00   9.760000E+00   9.130000E+00   9.460000E+00  -1.000000E+09  -1.000000E+09  -1.000000E+09  -1.000000E+09  -1.000000E+09  -1.000000E+09  -1.000000E+09  -1.000000E+09
  -1.000000E+09  -1.000000E+09  -1.000000E+09  -1.000000E+09  -1.000000E+09  -1.000000E+09  -1.000000E+09  -1.000000E+09  -1.000000E+09  -1.000000E+09  -1.000000E+09  -1.000000E+09  -1.000000E+09  -1.000000E+09  -1.000000E+09  -1.000000E+09  -1.000000E+09  -1.000000E+09  -1.000000E+09  -1.000000E+09  -1.000000E+09  -1.000000E+09  -1.000000E+09  -1.000000E+09  -1.000000E+09  -1.000000E+09  -1.000000E+09  -1.000000E+09  -1.000000E+09  -1.000000E+09  -1.000000E+09  -1.000000E+09  -1.000000E+09  -1.000000E+09  -1.000000E+09  -1.000000E+09  -1.000000E+09  -1.000000E+09  -1.000000E+09   2.146000E+01   2.091000E+01   2.078000E+01   2.008000E+01   1.847000E+01   1.885000E+01   1.917000E+01   2.022000E+01   1.856000E+01   1.837000E+01   1.780000E+01   1.578000E+01   1.301000E+01   9.920000E+00   1.418000E+01   9.890000E+00   9.630000E+00   9.870000E+00   9.930000E+00   1.012000E+01  -1.000000E+09  -1.000000E+09  -1.000000E+09  -1.000000E+09  -1.000000E+09  -1.000000E+09  -1.000000E+09
  -1.000000E+09  -1.000000E+09  -1.000000E+09  -1.000000E+09  -1.000000E+09  -1.000000E+09  -1.000000E+09  -1.000000E+09  -1.000000E+09  -1.000000E+09  -1.000000E+09  -1.000000E+09  -1.000000E+09  -1.000000E+09  -1.000000E+09  -1.000000E+09  -1.000000E+09  -1.000000E+09  -1.000000E+09  -1.000000E+09  -1.000000E+09  -1.000000E+09  -1.000000E+09  -1.000000E+09  -1.000000E+09  -1.000000E+09  -1.000000E+09  -1.000000E+09  -1.000000E+09  -1.000000E+09  -1.000000E+09  -1.000000E+09  -1.000000E+09  -1.000000E+09  -1.000000E+09  -1.000000E+09  -1.000000E+09  -1.000000E+09  -1.000000E+09  -1.000000E+09   2.162000E+01   2.085000E+01   2.055000E+01   2.028000E+01   1.997000E+01   2.093000E+01   2.145000E+01   2.072000E+01   2.030000E+01   1.931000E+01   1.657000E+01   1.223000E+01   1.027000E+01   8.800000E+00   8.720000E+00   1.080000E+01   1.101000E+01   9.730000E+00   9.990000E+00  -1.000000E+09  -1.000000E+09  -1.000000E+09  -1.000000E+09  -1.000000E+09  -1.000000E+09  -1.000000E+09
  -1.000000E+09  -1.000000E+09  -1.000000E+09  -1.000000E+09  -1.000000E+09  -1.000000E+09  -1.000000E+09  -1.000000E+09  -1.000000E+09  -1.000000E+09  -1.000000E+09  -1.000000E+09  -1.000000E+09  -1.000000E+09  -1.000000E+09  -1.000000E+09  -1.000000E+09  -1.000000E+09  -1.000000E+09  -1.000000E+09  -1.000000E+09  -1.000000E+09  -1.000000E+09  -1.000000E+09  -1.000000E+09  -1.000000E+09  -1.000000E+09  -1.000000E+09  -1.000000E+09  -1.000000E+09  -1.000000E+09  -1.000000E+09  -1.000000E+09  -1.000000E+09  -1.000000E+09  -1.000000E+09  -1.000000E+09  -1.000000E+09  -1.000000E+09  -1.000000E+09   2.240000E+01   2.168000E+01   2.149000E+01   2.142000E+01   2.195000E+01   2.287000E+01   2.254000E+01   2.225000E+01   2.189000E+01   1.930000E+01   1.480000E+01   1.175000E+01   9.390000E+00   9.910000E+00   9.600000E+00   9.040000E+00   1.054000E+01   1.791000E+01   1.030000E+01  -1.000000E+09  -1.000000E+09  -1.000000E+09  -1.000000E+09  -1.000000E+09  -1.000000E+09  -1.000000E+09
  -1.000000E+09  -1.000000E+09  -1.000000E+09  -1.000000E+09  -1.000000E+09  -1.000000E+09  -1.000000E+09  -1.000000E+09  -1.000000E+09  -1.000000E+09  -1.000000E+09  -1.000000E+09  -1.000000E+09  -1.000000E+09  -1.000000E+09  -1.000000E+09  -1.000000E+09  -1.000000E+09  -1.000000E+09  -1.000000E+09  -1.000000E+09  -1.000000E+09  -1.000000E+09  -1.000000E+09  -1.000000E+09  -1.000000E+09  -1.000000E+09  -1.000000E+09  -1.000000E+09  -1.000000E+09  -1.000000E+09  -1.000000E+09  -1.000000E+09  -1.000000E+09  -1.000000E+09  -1.000000E+09  -1.000000E+09  -1.000000E+09  -1.000000E+09   2.436000E+01   2.347000E+01   2.315000E+01   2.293000E+01   2.330000E+01   2.380000E+01   2.389000E+01   2.308000E+01   1.993000E+01   2.243000E+01   1.878000E+01   1.412000E+01   1.131000E+01   9.550000E+00   7.660000E+00   9.450000E+00   9.340000E+00   1.040000E+01   1.130000E+01  -1.000000E+09  -1.000000E+09  -1.000000E+09  -1.000000E+09  -1.000000E+09  -1.000000E+09  -1.000000E+09  -1.000000E+09
  -1.000000E+09  -1.000000E+09  -1.000000E+09  -1.000000E+09  -1.000000E+09  -1.000000E+09  -1.000000E+09  -1.000000E+09  -1.000000E+09  -1.000000E+09  -1.000000E+09  -1.000000E+09  -1.000000E+09  -1.000000E+09  -1.000000E+09  -1.000000E+09  -1.000000E+09  -1.000000E+09  -1.000000E+09  -1.000000E+09  -1.000000E+09  -1.000000E+09  -1.000000E+09  -1.000000E+09  -1.000000E+09  -1.000000E+09  -1.000000E+09  -1.000000E+09  -1.000000E+09  -1.000000E+09  -1.000000E+09  -1.000000E+09  -1.000000E+09  -1.000000E+09  -1.000000E+09  -1.000000E+09  -1.000000E+09  -1.000000E+09   2.600000E+01   2.580000E+01   2.525000E+01   2.454000E+01   2.480000E+01   2.513000E+01   2.531000E+01   2.489000E+01   2.416000E+01   2.290000E+01   2.061000E+01   1.630000E+01   1.291000E+01   1.001806E+01   1.029000E+01   9.180000E+00   9.890000E+00   1.003000E+01   1.096000E+01   1.247000E+01  -1.000000E+09  -1.000000E+09  -1.000000E+09  -1.000000E+09  -1.000000E+09  -1.000000E+09  -1.000000E+09  -1.000000E+09
  -1.000000E+09  -1.000000E+09  -1.000000E+09  -1.000000E+09  -1.000000E+09  -1.000000E+09  -1.000000E+09  -1.000000E+09  -1.000000E+09  -1.000000E+09  -1.000000E+09  -1.000000E+09  -1.000000E+09  -1.000000E+09  -1.000000E+09  -1.000000E+09  -1.000000E+09  -1.000000E+09  -1.000000E+09  -1.000000E+09  -1.000000E+09  -1.000000E+09  -1.000000E+09  -1.000000E+09  -1.000000E+09  -1.000000E+09  -1.000000E+09  -1.000000E+09  -1.000000E+09  -1.000000E+09  -1.000000E+09  -1.000000E+09  -1.000000E+09  -1.000000E+09  -1.000000E+09  -1.000000E+09  -1.000000E+09  -1.000000E+09   2.721000E+01   2.642000E+01   2.583000E+01   2.562000E+01   2.577000E+01   2.605000E+01   2.552000E+01   2.426000E+01   2.406000E+01   1.957000E+01   1.844000E+01   1.465000E+01   1.196000E+01   9.760000E+00   1.021000E+01   1.030000E+01   1.020000E+01   1.096000E+01   1.152000E+01   1.213000E+01  -1.000000E+09  -1.000000E+09  -1.000000E+09  -1.000000E+09  -1.000000E+09  -1.000000E+09  -1.000000E+09  -1.000000E+09
  -1.000000E+09  -1.000000E+09  -1.000000E+09  -1.000000E+09  -1.000000E+09  -1.000000E+09  -1.000000E+09  -1.000000E+09  -1.000000E+09  -1.000000E+09  -1.000000E+09  -1.000000E+09  -1.000000E+09  -1.000000E+09  -1.000000E+09  -1.000000E+09  -1.000000E+09  -1.000000E+09  -1.000000E+09  -1.000000E+09  -1.000000E+09  -1.000000E+09  -1.000000E+09  -1.000000E+09  -1.000000E+09  -1.000000E+09  -1.000000E+09  -1.000000E+09  -1.000000E+09  -1.000000E+09  -1.000000E+09  -1.000000E+09  -1.000000E+09  -1.000000E+09  -1.000000E+09  -1.000000E+09  -1.000000E+09   2.771000E+01   2.622000E+01   2.597000E+01   2.631000E+01   2.605000E+01   2.600000E+01   2.566000E+01   2.532000E+01   2.333000E+01   2.123000E+01   1.931000E+01   1.579000E+01   1.370000E+01   1.081000E+01   1.181000E+01   1.044000E+01   1.032000E+01   1.061000E+01   1.082000E+01   1.158000E+01   1.308000E+01  -1.000000E+09  -1.000000E+09  -1.000000E+09  -1.000000E+09  -1.000000E+09  -1.000000E+09  -1.000000E+09  -1.000000E+09
  -1.000000E+09  -1.000000E+09  -1.000000E+09  -1.000000E+09  -1.000000E+09  -1.000000E+09  -1.000000E+09  -1.000000E+09  -1.000000E+09  -1.000000E+09  -1.000000E+09  -1.000000E+09  -1.000000E+09  -1.000000E+09  -1.000000E+09  -1.000000E+09  -1.000000E+09  -1.000000E+09  -1.000000E+09  -1.000000E+09  -1.000000E+09  -1.000000E+09  -1.000000E+09  -1.000000E+09  -1.000000E+09  -1.000000E+09  -1.000000E+09  -1.000000E+09  -1.000000E+09  -1.000000E+09  -1.000000E+09  -1.000000E+09  -1.000000E+09  -1.000000E+09  -1.000000E+09  -1.000000E+09   2.951000E+01   2.829000E+01   2.678000E+01   2.694000E+01   2.714000E+01   2.651000E+01   2.626000E+01   2.599000E+01   2.371000E+01   2.149000E+01   1.881000E+01   1.681000E+01   1.408000E+01   1.286000E+01   1.104000E+01   1.124000E+01   1.079000E+01   1.117000E+01   1.166000E+01   1.172000E+01   1.288000E+01   1.407000E+01  -1.000000E+09  -1.000000E+09  -1.000000E+09  -1.000000E+09  -1.000000E+09  -1.000000E+09  -1.000000E+09  -1.000000E+09
  -1.000000E+09  -1.000000E+09  -1.000000E+09  -1.000000E+09  -1.000000E+09  -1.000000E+09  -1.000000E+09  -1.000000E+09  -1.000000E+09  -1.000000E+09  -1.000000E+09  -1.000000E+09  -1.000000E+09  -1.000000E+09  -1.000000E+09  -1.000000E+09  -1.000000E+09  -1.000000E+09  -1.000000E+09  -1.000000E+09  -1.000000E+09  -1.000000E+09  -1.000000E+09  -1.000000E+09  -1.000000E+09  -1.000000E+09  -1.000000E+09  -1.000000E+09  -1.000000E+09  -1.000000E+09  -1.000000E+09  -1.000000E+09  -1.000000E+09  -1.000000E+09   3.124000E+01   3.080000E+01   2.930000E+01   2.823000E+01   2.732000E+01   2.735000E+01   2.727000E+01   2.649000E+01   2.549000E+01   2.383000E+01   2.208000E+01   1.983000E+01   1.628000E+01   1.421000E+01   1.171000E+01   1.115000E+01   1.238000E+01   1.104000E+01   1.205000E+01   1.112000E+01   1.232000E+01   1.398000E+01   1.477000E+01   1.548000E+01  -1.000000E+09  -1.000000E+09  -1.000000E+09  -1.000000E+09  -1.000000E+09  -1.000000E+09  -1.000000E+09  -1.000000E+09