# File generated by Flopy version 3.6.0 on 04/05/2024 at 20:33:58.
BEGIN options
  TIME_UNITS  days
END options

BEGIN dimensions
  NPER  2557
END dimensions

BEGIN perioddata
       1.00000000  18       2.00000000
       1.00000000  18       2.00000000
       1.00000000  18       2.00000000
       1.00000000  18       2.00000000
       1.00000000  18       2.00000000
       1.00000000  18       2.00000000
       1.00000000  18       2.00000000
       1.00000000  18       2.00000000
       1.00000000  18       2.00000000
       1.00000000  18       2.00000000
       1.00000000  18       2.00000000
       1.00000000  18       2.00000000
       1.00000000  18       2.00000000
       1.00000000  18       2.00000000
       1.00000000  18       2.00000000
       1.00000000  18       2.00000000
       1.00000000  18       2.00000000
       1.00000000  18       2.00000000
       1.00000000  18       2.00000000
       1.00000000  18       2.00000000
       1.00000000  18       2.00000000
       1.00000000  18       2.00000000
       1.00000000  18       2.00000000
       1.00000000  18       2.00000000
       1.00000000  18       2.00000000
       1.00000000  18       2.00000000
       1.00000000  18       2.00000000
       1.00000000  18       2.00000000
       1.00000000  18       2.00000000
       1.00000000  18       2.00000000
       1.00000000  18       2.00000000
       1.00000000  18       2.00000000
       1.00000000  18       2.00000000
       1.00000000  18       2.00000000
       1.00000000  18       2.00000000
       1.00000000  18       2.00000000
       1.00000000  18       2.00000000
       1.00000000  18       2.00000000
       1.00000000  18       2.00000000
       1.00000000  18       2.00000000
       1.00000000  18       2.00000000
       1.00000000  18       2.00000000
       1.00000000  18       2.00000000
       1.00000000  18       2.00000000
       1.00000000  18       2.00000000
       1.00000000  18       2.00000000
       1.00000000  18       2.00000000
       1.00000000  18       2.00000000
       1.00000000  18       2.00000000
       1.00000000  18       2.00000000
       1.00000000  18       2.00000000
       1.00000000  18       2.00000000
       1.00000000  18       2.00000000
       1.00000000  18       2.00000000
       1.00000000  18       2.00000000
       1.00000000  18       2.00000000
       1.00000000  18       2.00000000
       1.00000000  18       2.00000000
       1.00000000  18       2.00000000
       1.00000000  18       2.00000000
       1.00000000  18       2.00000000
       1.00000000  18       2.00000000
       1.00000000  18       2.00000000
       1.00000000  18       2.00000000
       1.00000000  18       2.00000000
       1.00000000  18       2.00000000
       1.00000000  18       2.00000000
       1.00000000  18       2.00000000
       1.00000000  18       2.00000000
       1.00000000  18       2.00000000
       1.00000000  18       2.00000000
       1.00000000  18       2.00000000
       1.00000000  18       2.00000000
       1.00000000  18       2.00000000
       1.00000000  18       2.00000000
       1.00000000  18       2.00000000
       1.00000000  18       2.00000000
       1.00000000  18       2.00000000
       1.00000000  18       2.00000000
       1.00000000  18       2.00000000
       1.00000000  18       2.00000000
       1.00000000  18       2.00000000
       1.00000000  18       2.00000000
       1.00000000  18       2.00000000
       1.00000000  18       2.00000000
       1.00000000  18       2.00000000
       1.00000000  18       2.00000000
       1.00000000  18       2.00000000
       1.00000000  18       2.00000000
       1.00000000  18       2.00000000
       1.00000000  18       2.00000000
       1.00000000  18       2.00000000
       1.00000000  18       2.00000000
       1.00000000  18       2.00000000
       1.00000000  18       2.00000000
       1.00000000  18       2.00000000
       1.00000000  18       2.00000000
       1.00000000  18       2.00000000
       1.00000000  18       2.00000000
       1.00000000  18       2.00000000
       1.00000000  18       2.00000000
       1.00000000  18       2.00000000
       1.00000000  18       2.00000000
       1.00000000  18       2.00000000
       1.00000000  18       2.00000000
       1.00000000  18       2.00000000
       1.00000000  18       2.00000000
       1.00000000  18       2.00000000
       1.00000000  18       2.00000000
       1.00000000  18       2.00000000
       1.00000000  18       2.00000000
       1.00000000  18       2.00000000
       1.00000000  18       2.00000000
       1.00000000  18       2.00000000
       1.00000000  18       2.00000000
       1.00000000  18       2.00000000
       1.00000000  18       2.00000000
       1.00000000  18       2.00000000
       1.00000000  18       2.00000000
       1.00000000  18       2.00000000
       1.00000000  18       2.00000000
       1.00000000  18       2.00000000
       1.00000000  18       2.00000000
       1.00000000  18       2.00000000
       1.00000000  18       2.00000000
       1.00000000  18       2.00000000
       1.00000000  18       2.00000000
       1.00000000  18       2.00000000
       1.00000000  18       2.00000000
       1.00000000  18       2.00000000
       1.00000000  18       2.00000000
       1.00000000  18       2.00000000
       1.00000000  18       2.00000000
       1.00000000  18       2.00000000
       1.00000000  18       2.00000000
       1.00000000  18       2.00000000
       1.00000000  18       2.00000000
       1.00000000  18       2.00000000
       1.00000000  18       2.00000000
       1.00000000  18       2.00000000
       1.00000000  18       2.00000000
       1.00000000  18       2.00000000
       1.00000000  18       2.00000000
       1.00000000  18       2.00000000
       1.00000000  18       2.00000000
       1.00000000  18       2.00000000
       1.00000000  18       2.00000000
       1.00000000  18       2.00000000
       1.00000000  18       2.00000000
       1.00000000  18       2.00000000
       1.00000000  18       2.00000000
       1.00000000  18       2.00000000
       1.00000000  18       2.00000000
       1.00000000  18       2.00000000
       1.00000000  18       2.00000000
       1.00000000  18       2.00000000
       1.00000000  18       2.00000000
       1.00000000  18       2.00000000
       1.00000000  18       2.00000000
       1.00000000  18       2.00000000
       1.00000000  18       2.00000000
       1.00000000  18       2.00000000
       1.00000000  18       2.00000000
       1.00000000  18       2.00000000
       1.00000000  18       2.00000000
       1.00000000  18       2.00000000
       1.00000000  18       2.00000000
       1.00000000  18       2.00000000
       1.00000000  18       2.00000000
       1.00000000  18       2.00000000
       1.00000000  18       2.00000000
       1.00000000  18       2.00000000
       1.00000000  18       2.00000000
       1.00000000  18       2.00000000
       1.00000000  18       2.00000000
       1.00000000  18       2.00000000
       1.00000000  18       2.00000000
       1.00000000  18       2.00000000
       1.00000000  18       2.00000000
       1.00000000  18       2.00000000
       1.00000000  18       2.00000000
       1.00000000  18       2.00000000
       1.00000000  18       2.00000000
       1.00000000  18       2.00000000
       1.00000000  18       2.00000000
       1.00000000  18       2.00000000
       1.00000000  18       2.00000000
       1.00000000  18       2.00000000
       1.00000000  18       2.00000000
       1.00000000  18       2.00000000
       1.00000000  18       2.00000000
       1.00000000  18       2.00000000
       1.00000000  18       2.00000000
       1.00000000  18       2.00000000
       1.00000000  18       2.00000000
       1.00000000  18       2.00000000
       1.00000000  18       2.00000000
       1.00000000  18       2.00000000
       1.00000000  18       2.00000000
       1.00000000  18       2.00000000
       1.00000000  18       2.00000000
       1.00000000  18       2.00000000
       1.00000000  18       2.00000000
       1.00000000  18       2.00000000
       1.00000000  18       2.00000000
       1.00000000  18       2.00000000
       1.00000000  18       2.00000000
       1.00000000  18       2.00000000
       1.00000000  18       2.00000000
       1.00000000  18       2.00000000
       1.00000000  18       2.00000000
       1.00000000  18       2.00000000
       1.00000000  18       2.00000000
       1.00000000  18       2.00000000
       1.00000000  18       2.00000000
       1.00000000  18       2.00000000
       1.00000000  18       2.00000000
       1.00000000  18       2.00000000
       1.00000000  18       2.00000000
       1.00000000  18       2.00000000
       1.00000000  18       2.00000000
       1.00000000  18       2.00000000
       1.00000000  18       2.00000000
       1.00000000  18       2.00000000
       1.00000000  18       2.00000000
       1.00000000  18       2.00000000
       1.00000000  18       2.00000000
       1.00000000  18       2.00000000
       1.00000000  18       2.00000000
       1.00000000  18       2.00000000
       1.00000000  18       2.00000000
       1.00000000  18       2.00000000
       1.00000000  18       2.00000000
       1.00000000  18       2.00000000
       1.00000000  18       2.00000000
       1.00000000  18       2.00000000
       1.00000000  18       2.00000000
       1.00000000  18       2.00000000
       1.00000000  18       2.00000000
       1.00000000  18       2.00000000
       1.00000000  18       2.00000000
       1.00000000  18       2.00000000
       1.00000000  18       2.00000000
       1.00000000  18       2.00000000
       1.00000000  18       2.00000000
       1.00000000  18       2.00000000
       1.00000000  18       2.00000000
       1.00000000  18       2.00000000
       1.00000000  18       2.00000000
       1.00000000  18       2.00000000
       1.00000000  18       2.00000000
       1.00000000  18       2.00000000
       1.00000000  18       2.00000000
       1.00000000  18       2.00000000
       1.00000000  18       2.00000000
       1.00000000  18       2.00000000
       1.00000000  18       2.00000000
       1.00000000  18       2.00000000
       1.00000000  18       2.00000000
       1.00000000  18       2.00000000
       1.00000000  18       2.00000000
       1.00000000  18       2.00000000
       1.00000000  18       2.00000000
       1.00000000  18       2.00000000
       1.00000000  18       2.00000000
       1.00000000  18       2.00000000
       1.00000000  18       2.00000000
       1.00000000  18       2.00000000
       1.00000000  18       2.00000000
       1.00000000  18       2.00000000
       1.00000000  18       2.00000000
       1.00000000  18       2.00000000
       1.00000000  18       2.00000000
       1.00000000  18       2.00000000
       1.00000000  18       2.00000000
       1.00000000  18       2.00000000
       1.00000000  18       2.00000000
       1.00000000  18       2.00000000
       1.00000000  18       2.00000000
       1.00000000  18       2.00000000
       1.00000000  18       2.00000000
       1.00000000  18       2.00000000
       1.00000000  18       2.00000000
       1.00000000  18       2.00000000
       1.00000000  18       2.00000000
       1.00000000  18       2.00000000
       1.00000000  18       2.00000000
       1.00000000  18       2.00000000
       1.00000000  18       2.00000000
       1.00000000  18       2.00000000
       1.00000000  18       2.00000000
       1.00000000  18       2.00000000
       1.00000000  18       2.00000000
       1.00000000  18       2.00000000
       1.00000000  18       2.00000000
       1.00000000  18       2.00000000
       1.00000000  18       2.00000000
       1.00000000  18       2.00000000
       1.00000000  18       2.00000000
       1.00000000  18       2.00000000
       1.00000000  18       2.00000000
       1.00000000  18       2.00000000
       1.00000000  18       2.00000000
       1.00000000  18       2.00000000
       1.00000000  18       2.00000000
       1.00000000  18       2.00000000
       1.00000000  18       2.00000000
       1.00000000  18       2.00000000
       1.00000000  18       2.00000000
       1.00000000  18       2.00000000
       1.00000000  18       2.00000000
       1.00000000  18       2.00000000
       1.00000000  18       2.00000000
       1.00000000  18       2.00000000
       1.00000000  18       2.00000000
       1.00000000  18       2.00000000
       1.00000000  18       2.00000000
       1.00000000  18       2.00000000
       1.00000000  18       2.00000000
       1.00000000  18       2.00000000
       1.00000000  18       2.00000000
       1.00000000  18       2.00000000
       1.00000000  18       2.00000000
       1.00000000  18       2.00000000
       1.00000000  18       2.00000000
       1.00000000  18       2.00000000
       1.00000000  18       2.00000000
       1.00000000  18       2.00000000
       1.00000000  18       2.00000000
       1.00000000  18       2.00000000
       1.00000000  18       2.00000000
       1.00000000  18       2.00000000
       1.00000000  18       2.00000000
       1.00000000  18       2.00000000
       1.00000000  18       2.00000000
       1.00000000  18       2.00000000
       1.00000000  18       2.00000000
       1.00000000  18       2.00000000
       1.00000000  18       2.00000000
       1.00000000  18       2.00000000
       1.00000000  18       2.00000000
       1.00000000  18       2.00000000
       1.00000000  18       2.00000000
       1.00000000  18       2.00000000
       1.00000000  18       2.00000000
       1.00000000  18       2.00000000
       1.00000000  18       2.00000000
       1.00000000  18       2.00000000
       1.00000000  18       2.00000000
       1.00000000  18       2.00000000
       1.00000000  18       2.00000000
       1.00000000  18       2.00000000
       1.00000000  18       2.00000000
       1.00000000  18       2.00000000
       1.00000000  18       2.00000000
       1.00000000  18       2.00000000
       1.00000000  18       2.00000000
       1.00000000  18       2.00000000
       1.00000000  18       2.00000000
       1.00000000  18       2.00000000
       1.00000000  18       2.00000000
       1.00000000  18       2.00000000
       1.00000000  18       2.00000000
       1.00000000  18       2.00000000
       1.00000000  18       2.00000000
       1.00000000  18       2.00000000
       1.00000000  18       2.00000000
       1.00000000  18       2.00000000
       1.00000000  18       2.00000000
       1.00000000  18       2.00000000
       1.00000000  18       2.00000000
       1.00000000  18       2.00000000
       1.00000000  18       2.00000000
       1.00000000  18       2.00000000
       1.00000000  18       2.00000000
       1.00000000  18       2.00000000
       1.00000000  18       2.00000000
       1.00000000  18       2.00000000
       1.00000000  18       2.00000000
       1.00000000  18       2.00000000
       1.00000000  18       2.00000000
       1.00000000  18       2.00000000
       1.00000000  18       2.00000000
       1.00000000  18       2.00000000
       1.00000000  18       2.00000000
       1.00000000  18       2.00000000
       1.00000000  18       2.00000000
       1.00000000  18       2.00000000
       1.00000000  18       2.00000000
       1.00000000  18       2.00000000
       1.00000000  18       2.00000000
       1.00000000  18       2.00000000
       1.00000000  18       2.00000000
       1.00000000  18       2.00000000
       1.00000000  18       2.00000000
       1.00000000  18       2.00000000
       1.00000000  18       2.00000000
       1.00000000  18       2.00000000
       1.00000000  18       2.00000000
       1.00000000  18       2.00000000
       1.00000000  18       2.00000000
       1.00000000  18       2.00000000
       1.00000000  18       2.00000000
       1.00000000  18       2.00000000
       1.00000000  18       2.00000000
       1.00000000  18       2.00000000
       1.00000000  18       2.00000000
       1.00000000  18       2.00000000
       1.00000000  18       2.00000000
       1.00000000  18       2.00000000
       1.00000000  18       2.00000000
       1.00000000  18       2.00000000
       1.00000000  18       2.00000000
       1.00000000  18       2.00000000
       1.00000000  18       2.00000000
       1.00000000  18       2.00000000
       1.00000000  18       2.00000000
       1.00000000  18       2.00000000
       1.00000000  18       2.00000000
       1.00000000  18       2.00000000
       1.00000000  18       2.00000000
       1.00000000  18       2.00000000
       1.00000000  18       2.00000000
       1.00000000  18       2.00000000
       1.00000000  18       2.00000000
       1.00000000  18       2.00000000
       1.00000000  18       2.00000000
       1.00000000  18       2.00000000
       1.00000000  18       2.00000000
       1.00000000  18       2.00000000
       1.00000000  18       2.00000000
       1.00000000  18       2.00000000
       1.00000000  18       2.00000000
       1.00000000  18       2.00000000
       1.00000000  18       2.00000000
       1.00000000  18       2.00000000
       1.00000000  18       2.00000000
       1.00000000  18       2.00000000
       1.00000000  18       2.00000000
       1.00000000  18       2.00000000
       1.00000000  18       2.00000000
       1.00000000  18       2.00000000
       1.00000000  18       2.00000000
       1.00000000  18       2.00000000
       1.00000000  18       2.00000000
       1.00000000  18       2.00000000
       1.00000000  18       2.00000000
       1.00000000  18       2.00000000
       1.00000000  18       2.00000000
       1.00000000  18       2.00000000
       1.00000000  18       2.00000000
       1.00000000  18       2.00000000
       1.00000000  18       2.00000000
       1.00000000  18       2.00000000
       1.00000000  18       2.00000000
       1.00000000  18       2.00000000
       1.00000000  18       2.00000000
       1.00000000  18       2.00000000
       1.00000000  18       2.00000000
       1.00000000  18       2.00000000
       1.00000000  18       2.00000000
       1.00000000  18       2.00000000
       1.00000000  18       2.00000000
       1.00000000  18       2.00000000
       1.00000000  18       2.00000000
       1.00000000  18       2.00000000
       1.00000000  18       2.00000000
       1.00000000  18       2.00000000
       1.00000000  18       2.00000000
       1.00000000  18       2.00000000
       1.00000000  18       2.00000000
       1.00000000  18       2.00000000
       1.00000000  18       2.00000000
       1.00000000  18       2.00000000
       1.00000000  18       2.00000000
       1.00000000  18       2.00000000
       1.00000000  18       2.00000000
       1.00000000  18       2.00000000
       1.00000000  18       2.00000000
       1.00000000  18       2.00000000
       1.00000000  18       2.00000000
       1.00000000  18       2.00000000
       1.00000000  18       2.00000000
       1.00000000  18       2.00000000
       1.00000000  18       2.00000000
       1.00000000  18       2.00000000
       1.00000000  18       2.00000000
       1.00000000  18       2.00000000
       1.00000000  18       2.00000000
       1.00000000  18       2.00000000
       1.00000000  18       2.00000000
       1.00000000  18       2.00000000
       1.00000000  18       2.00000000
       1.00000000  18       2.00000000
       1.00000000  18       2.00000000
       1.00000000  18       2.00000000
       1.00000000  18       2.00000000
       1.00000000  18       2.00000000
       1.00000000  18       2.00000000
       1.00000000  18       2.00000000
       1.00000000  18       2.00000000
       1.00000000  18       2.00000000
       1.00000000  18       2.00000000
       1.00000000  18       2.00000000
       1.00000000  18       2.00000000
       1.00000000  18       2.00000000
       1.00000000  18       2.00000000
       1.00000000  18       2.00000000
       1.00000000  18       2.00000000
       1.00000000  18       2.00000000
       1.00000000  18       2.00000000
       1.00000000  18       2.00000000
       1.00000000  18       2.00000000
       1.00000000  18       2.00000000
       1.00000000  18       2.00000000
       1.00000000  18       2.00000000
       1.00000000  18       2.00000000
       1.00000000  18       2.00000000
       1.00000000  18       2.00000000
       1.00000000  18       2.00000000
       1.00000000  18       2.00000000
       1.00000000  18       2.00000000
       1.00000000  18       2.00000000
       1.00000000  18       2.00000000
       1.00000000  18       2.00000000
       1.00000000  18       2.00000000
       1.00000000  18       2.00000000
       1.00000000  18       2.00000000
       1.00000000  18       2.00000000
       1.00000000  18       2.00000000
       1.00000000  18       2.00000000
       1.00000000  18       2.00000000
       1.00000000  18       2.00000000
       1.00000000  18       2.00000000
       1.00000000  18       2.00000000
       1.00000000  18       2.00000000
       1.00000000  18       2.00000000
       1.00000000  18       2.00000000
       1.00000000  18       2.00000000
       1.00000000  18       2.00000000
       1.00000000  18       2.00000000
       1.00000000  18       2.00000000
       1.00000000  18       2.00000000
       1.00000000  18       2.00000000
       1.00000000  18       2.00000000
       1.00000000  18       2.00000000
       1.00000000  18       2.00000000
       1.00000000  18       2.00000000
       1.00000000  18       2.00000000
       1.00000000  18       2.00000000
       1.00000000  18       2.00000000
       1.00000000  18       2.00000000
       1.00000000  18       2.00000000
       1.00000000  18       2.00000000
       1.00000000  18       2.00000000
       1.00000000  18       2.00000000
       1.00000000  18       2.00000000
       1.00000000  18       2.00000000
       1.00000000  18       2.00000000
       1.00000000  18       2.00000000
       1.00000000  18       2.00000000
       1.00000000  18       2.00000000
       1.00000000  18       2.00000000
       1.00000000  18       2.00000000
       1.00000000  18       2.00000000
       1.00000000  18       2.00000000
       1.00000000  18       2.00000000
       1.00000000  18       2.00000000
       1.00000000  18       2.00000000
       1.00000000  18       2.00000000
       1.00000000  18       2.00000000
       1.00000000  18       2.00000000
       1.00000000  18       2.00000000
       1.00000000  18       2.00000000
       1.00000000  18       2.00000000
       1.00000000  18       2.00000000
       1.00000000  18       2.00000000
       1.00000000  18       2.00000000
       1.00000000  18       2.00000000
       1.00000000  18       2.00000000
       1.00000000  18       2.00000000
       1.00000000  18       2.00000000
       1.00000000  18       2.00000000
       1.00000000  18       2.00000000
       1.00000000  18       2.00000000
       1.00000000  18       2.00000000
       1.00000000  18       2.00000000
       1.00000000  18       2.00000000
       1.00000000  18       2.00000000
       1.00000000  18       2.00000000
       1.00000000  18       2.00000000
       1.00000000  18       2.00000000
       1.00000000  18       2.00000000
       1.00000000  18       2.00000000
       1.00000000  18       2.00000000
       1.00000000  18       2.00000000
       1.00000000  18       2.00000000
       1.00000000  18       2.00000000
       1.00000000  18       2.00000000
       1.00000000  18       2.00000000
       1.00000000  18       2.00000000
       1.00000000  18       2.00000000
       1.00000000  18       2.00000000
       1.00000000  18       2.00000000
       1.00000000  18       2.00000000
       1.00000000  18       2.00000000
       1.00000000  18       2.00000000
       1.00000000  18       2.00000000
       1.00000000  18       2.00000000
       1.00000000  18       2.00000000
       1.00000000  18       2.00000000
       1.00000000  18       2.00000000
       1.00000000  18       2.00000000
       1.00000000  18       2.00000000
       1.00000000  18       2.00000000
       1.00000000  18       2.00000000
       1.00000000  18       2.00000000
       1.00000000  18       2.00000000
       1.00000000  18       2.00000000
       1.00000000  18       2.00000000
       1.00000000  18       2.00000000
       1.00000000  18       2.00000000
       1.00000000  18       2.00000000
       1.00000000  18       2.00000000
       1.00000000  18       2.00000000
       1.00000000  18       2.00000000
       1.00000000  18       2.00000000
       1.00000000  18       2.00000000
       1.00000000  18       2.00000000
       1.00000000  18       2.00000000
       1.00000000  18       2.00000000
       1.00000000  18       2.00000000
       1.00000000  18       2.00000000
       1.00000000  18       2.00000000
       1.00000000  18       2.00000000
       1.00000000  18       2.00000000
       1.00000000  18       2.00000000
       1.00000000  18       2.00000000
       1.00000000  18       2.00000000
       1.00000000  18       2.00000000
       1.00000000  18       2.00000000
       1.00000000  18       2.00000000
       1.00000000  18       2.00000000
       1.00000000  18       2.00000000
       1.00000000  18       2.00000000
       1.00000000  18       2.00000000
       1.00000000  18       2.00000000
       1.00000000  18       2.00000000
       1.00000000  18       2.00000000
       1.00000000  18       2.00000000
       1.00000000  18       2.00000000
       1.00000000  18       2.00000000
       1.00000000  18       2.00000000
       1.00000000  18       2.00000000
       1.00000000  18       2.00000000
       1.00000000  18       2.00000000
       1.00000000  18       2.00000000
       1.00000000  18       2.00000000
       1.00000000  18       2.00000000
       1.00000000  18       2.00000000
       1.00000000  18       2.00000000
       1.00000000  18       2.00000000
       1.00000000  18       2.00000000
       1.00000000  18       2.00000000
       1.00000000  18       2.00000000
       1.00000000  18       2.00000000
       1.00000000  18       2.00000000
       1.00000000  18       2.00000000
       1.00000000  18       2.00000000
       1.00000000  18       2.00000000
       1.00000000  18       2.00000000
       1.00000000  18       2.00000000
       1.00000000  18       2.00000000
       1.00000000  18       2.00000000
       1.00000000  18       2.00000000
       1.00000000  18       2.00000000
       1.00000000  18       2.00000000
       1.00000000  18       2.00000000
       1.00000000  18       2.00000000
       1.00000000  18       2.00000000
       1.00000000  18       2.00000000
       1.00000000  18       2.00000000
       1.00000000  18       2.00000000
       1.00000000  18       2.00000000
       1.00000000  18       2.00000000
       1.00000000  18       2.00000000
       1.00000000  18       2.00000000
       1.00000000  18       2.00000000
       1.00000000  18       2.00000000
       1.00000000  18       2.00000000
       1.00000000  18       2.00000000
       1.00000000  18       2.00000000
       1.00000000  18       2.00000000
       1.00000000  18       2.00000000
       1.00000000  18       2.00000000
       1.00000000  18       2.00000000
       1.00000000  18       2.00000000
       1.00000000  18       2.00000000
       1.00000000  18       2.00000000
       1.00000000  18       2.00000000
       1.00000000  18       2.00000000
       1.00000000  18       2.00000000
       1.00000000  18       2.00000000
       1.00000000  18       2.00000000
       1.00000000  18       2.00000000
       1.00000000  18       2.00000000
       1.00000000  18       2.00000000
       1.00000000  18       2.00000000
       1.00000000  18       2.00000000
       1.00000000  18       2.00000000
       1.00000000  18       2.00000000
       1.00000000  18       2.00000000
       1.00000000  18       2.00000000
       1.00000000  18       2.00000000
       1.00000000  18       2.00000000
       1.00000000  18       2.00000000
       1.00000000  18       2.00000000
       1.00000000  18       2.00000000
       1.00000000  18       2.00000000
       1.00000000  18       2.00000000
       1.00000000  18       2.00000000
       1.00000000  18       2.00000000
       1.00000000  18       2.00000000
       1.00000000  18       2.00000000
       1.00000000  18       2.00000000
       1.00000000  18       2.00000000
       1.00000000  18       2.00000000
       1.00000000  18       2.00000000
       1.00000000  18       2.00000000
       1.00000000  18       2.00000000
       1.00000000  18       2.00000000
       1.00000000  18       2.00000000
       1.00000000  18       2.00000000
       1.00000000  18       2.00000000
       1.00000000  18       2.00000000
       1.00000000  18       2.00000000
       1.00000000  18       2.00000000
       1.00000000  18       2.00000000
       1.00000000  18       2.00000000
       1.00000000  18       2.00000000
       1.00000000  18       2.00000000
       1.00000000  18       2.00000000
       1.00000000  18       2.00000000
       1.00000000  18       2.00000000
       1.00000000  18       2.00000000
       1.00000000  18       2.00000000
       1.00000000  18       2.00000000
       1.00000000  18       2.00000000
       1.00000000  18       2.00000000
       1.00000000  18       2.00000000
       1.00000000  18       2.00000000
       1.00000000  18       2.00000000
       1.00000000  18       2.00000000
       1.00000000  18       2.00000000
       1.00000000  18       2.00000000
       1.00000000  18       2.00000000
       1.00000000  18       2.00000000
       1.00000000  18       2.00000000
       1.00000000  18       2.00000000
       1.00000000  18       2.00000000
       1.00000000  18       2.00000000
       1.00000000  18       2.00000000
       1.00000000  18       2.00000000
       1.00000000  18       2.00000000