# OC package for MODFLOW-2005 generated by Flopy 3.6.0
HEAD PRINT FORMAT   0
HEAD SAVE UNIT    51
DRAWDOWN PRINT FORMAT   0
COMPACT BUDGET AUX

period 1 step 18 
  save head
  save budget

period 2 step 18 
  save head
  save budget

period 3 step 18 
  save head
  save budget

period 4 step 18 
  save head
  save budget

period 5 step 18 
  save head
  save budget

period 6 step 18 
  save head
  save budget

period 7 step 18 
  save head
  save budget

period 8 step 18 
  save head
  save budget

period 9 step 18 
  save head
  save budget

period 10 step 18 
  save head
  save budget

period 11 step 18 
  save head
  save budget

period 12 step 18 
  save head
  save budget

period 13 step 18 
  save head
  save budget

period 14 step 18 
  save head
  save budget

period 15 step 18 
  save head
  save budget

period 16 step 18 
  save head
  save budget

period 17 step 18 
  save head
  save budget

period 18 step 18 
  save head
  save budget

period 19 step 18 
  save head
  save budget

period 20 step 18 
  save head
  save budget

period 21 step 18 
  save head
  save budget

period 22 step 18 
  save head
  save budget

period 23 step 18 
  save head
  save budget

period 24 step 18 
  save head
  save budget

period 25 step 18 
  save head
  save budget

period 26 step 18 
  save head
  save budget

period 27 step 18 
  save head
  save budget

period 28 step 18 
  save head
  save budget

period 29 step 18 
  save head
  save budget

period 30 step 18 
  save head
  save budget

period 31 step 18 
  save head
  save budget

period 32 step 18 
  save head
  save budget

period 33 step 18 
  save head
  save budget

period 34 step 18 
  save head
  save budget

period 35 step 18 
  save head
  save budget

period 36 step 18 
  save head
  save budget

period 37 step 18 
  save head
  save budget

period 38 step 18 
  save head
  save budget

period 39 step 18 
  save head
  save budget

period 40 step 18 
  save head
  save budget

period 41 step 18 
  save head
  save budget

period 42 step 18 
  save head
  save budget

period 43 step 18 
  save head
  save budget

period 44 step 18 
  save head
  save budget

period 45 step 18 
  save head
  save budget

period 46 step 18 
  save head
  save budget

period 47 step 18 
  save head
  save budget

period 48 step 18 
  save head
  save budget

period 49 step 18 
  save head
  save budget

period 50 step 18 
  save head
  save budget

period 51 step 18 
  save head
  save budget

period 52 step 18 
  save head
  save budget

period 53 step 18 
  save head
  save budget

period 54 step 18 
  save head
  save budget

period 55 step 18 
  save head
  save budget

period 56 step 18 
  save head
  save budget

period 57 step 18 
  save head
  save budget

period 58 step 18 
  save head
  save budget

period 59 step 18 
  save head
  save budget

period 60 step 18 
  save head
  save budget

period 61 step 18 
  save head
  save budget

period 62 step 18 
  save head
  save budget

period 63 step 18 
  save head
  save budget

period 64 step 18 
  save head
  save budget

period 65 step 18 
  save head
  save budget

period 66 step 18 
  save head
  save budget

period 67 step 18 
  save head
  save budget

period 68 step 18 
  save head
  save budget

period 69 step 18 
  save head
  save budget

period 70 step 18 
  save head
  save budget

period 71 step 18 
  save head
  save budget

period 72 step 18 
  save head
  save budget

period 73 step 18 
  save head
  save budget

period 74 step 18 
  save head
  save budget

period 75 step 18 
  save head
  save budget

period 76 step 18 
  save head
  save budget

period 77 step 18 
  save head
  save budget

period 78 step 18 
  save head
  save budget

period 79 step 18 
  save head
  save budget

period 80 step 18 
  save head
  save budget

period 81 step 18 
  save head
  save budget

period 82 step 18 
  save head
  save budget

period 83 step 18 
  save head
  save budget

period 84 step 18 
  save head
  save budget

period 85 step 18 
  save head
  save budget

period 86 step 18 
  save head
  save budget

period 87 step 18 
  save head
  save budget

period 88 step 18 
  save head
  save budget

period 89 step 18 
  save head
  save budget

period 90 step 18 
  save head
  save budget

period 91 step 18 
  save head
  save budget

period 92 step 18 
  save head
  save budget

period 93 step 18 
  save head
  save budget

period 94 step 18 
  save head
  save budget

period 95 step 18 
  save head
  save budget

period 96 step 18 
  save head
  save budget

period 97 step 18 
  save head
  save budget

period 98 step 18 
  save head
  save budget

period 99 step 18 
  save head
  save budget

period 100 step 18 
  save head
  save budget

period 101 step 18 
  save head
  save budget

period 102 step 18 
  save head
  save budget

period 103 step 18 
  save head
  save budget

period 104 step 18 
  save head
  save budget

period 105 step 18 
  save head
  save budget

period 106 step 18 
  save head
  save budget

period 107 step 18 
  save head
  save budget

period 108 step 18 
  save head
  save budget

period 109 step 18 
  save head
  save budget

period 110 step 18 
  save head
  save budget

period 111 step 18 
  save head
  save budget

period 112 step 18 
  save head
  save budget

period 113 step 18 
  save head
  save budget

period 114 step 18 
  save head
  save budget

period 115 step 18 
  save head
  save budget

period 116 step 18 
  save head
  save budget

period 117 step 18 
  save head
  save budget

period 118 step 18 
  save head
  save budget

period 119 step 18 
  save head
  save budget

period 120 step 18 
  save head
  save budget

period 121 step 18 
  save head
  save budget

period 122 step 18 
  save head
  save budget

period 123 step 18 
  save head
  save budget

period 124 step 18 
  save head
  save budget

period 125 step 18 
  save head
  save budget

period 126 step 18 
  save head
  save budget

period 127 step 18 
  save head
  save budget

period 128 step 18 
  save head
  save budget

period 129 step 18 
  save head
  save budget

period 130 step 18 
  save head
  save budget

period 131 step 18 
  save head
  save budget

period 132 step 18 
  save head
  save budget

period 133 step 18 
  save head
  save budget

period 134 step 18 
  save head
  save budget

period 135 step 18 
  save head
  save budget

period 136 step 18 
  save head
  save budget

period 137 step 18 
  save head
  save budget

period 138 step 18 
  save head
  save budget

period 139 step 18 
  save head
  save budget

period 140 step 18 
  save head
  save budget

period 141 step 18 
  save head
  save budget

period 142 step 18 
  save head
  save budget

period 143 step 18 
  save head
  save budget

period 144 step 18 
  save head
  save budget

period 145 step 18 
  save head
  save budget

period 146 step 18 
  save head
  save budget

period 147 step 18 
  save head
  save budget

period 148 step 18 
  save head
  save budget

period 149 step 18 
  save head
  save budget

period 150 step 18 
  save head
  save budget

period 151 step 18 
  save head
  save budget

period 152 step 18 
  save head
  save budget

period 153 step 18 
  save head
  save budget

period 154 step 18 
  save head
  save budget

period 155 step 18 
  save head
  save budget

period 156 step 18 
  save head
  save budget

period 157 step 18 
  save head
  save budget

period 158 step 18 
  save head
  save budget

period 159 step 18 
  save head
  save budget

period 160 step 18 
  save head
  save budget

period 161 step 18 
  save head
  save budget

period 162 step 18 
  save head
  save budget

period 163 step 18 
  save head
  save budget

period 164 step 18 
  save head
  save budget

period 165 step 18 
  save head
  save budget

period 166 step 18 
  save head
  save budget

period 167 step 18 
  save head
  save budget

period 168 step 18 
  save head
  save budget

period 169 step 18 
  save head
  save budget

period 170 step 18 
  save head
  save budget

period 171 step 18 
  save head
  save budget

period 172 step 18 
  save head
  save budget

period 173 step 18 
  save head
  save budget

period 174 step 18 
  save head
  save budget

period 175 step 18 
  save head
  save budget

period 176 step 18 
  save head
  save budget

period 177 step 18 
  save head
  save budget

period 178 step 18 
  save head
  save budget

period 179 step 18 
  save head
  save budget

period 180 step 18 
  save head
  save budget

period 181 step 18 
  save head
  save budget

period 182 step 18 
  save head
  save budget

period 183 step 18 
  save head
  save budget

period 184 step 18 
  save head
  save budget

period 185 step 18 
  save head
  save budget

period 186 step 18 
  save head
  save budget

period 187 step 18 
  save head
  save budget

period 188 step 18 
  save head
  save budget

period 189 step 18 
  save head
  save budget

period 190 step 18 
  save head
  save budget

period 191 step 18 
  save head
  save budget

period 192 step 18 
  save head
  save budget

period 193 step 18 
  save head
  save budget

period 194 step 18 
  save head
  save budget

period 195 step 18 
  save head
  save budget

period 196 step 18 
  save head
  save budget

period 197 step 18 
  save head
  save budget

period 198 step 18 
  save head
  save budget

period 199 step 18 
  save head
  save budget

period 200 step 18 
  save head
  save budget

period 201 step 18 
  save head
  save budget

period 202 step 18 
  save head
  save budget

period 203 step 18 
  save head
  save budget

period 204 step 18 
  save head
  save budget

period 205 step 18 
  save head
  save budget

period 206 step 18 
  save head
  save budget

period 207 step 18 
  save head
  save budget

period 208 step 18 
  save head
  save budget

period 209 step 18 
  save head
  save budget

period 210 step 18 
  save head
  save budget

period 211 step 18 
  save head
  save budget

period 212 step 18 
  save head
  save budget

period 213 step 18 
  save head
  save budget

period 214 step 18 
  save head
  save budget

period 215 step 18 
  save head
  save budget

period 216 step 18 
  save head
  save budget

period 217 step 18 
  save head
  save budget

period 218 step 18 
  save head
  save budget

period 219 step 18 
  save head
  save budget

period 220 step 18 
  save head
  save budget

period 221 step 18 
  save head
  save budget

period 222 step 18 
  save head
  save budget

period 223 step 18 
  save head
  save budget

period 224 step 18 
  save head
  save budget

period 225 step 18 
  save head
  save budget

period 226 step 18 
  save head
  save budget

period 227 step 18 
  save head
  save budget

period 228 step 18 
  save head
  save budget

period 229 step 18 
  save head
  save budget

period 230 step 18 
  save head
  save budget

period 231 step 18 
  save head
  save budget

period 232 step 18 
  save head
  save budget

period 233 step 18 
  save head
  save budget

period 234 step 18 
  save head
  save budget

period 235 step 18 
  save head
  save budget

period 236 step 18 
  save head
  save budget

period 237 step 18 
  save head
  save budget

period 238 step 18 
  save head
  save budget

period 239 step 18 
  save head
  save budget

period 240 step 18 
  save head
  save budget

period 241 step 18 
  save head
  save budget

period 242 step 18 
  save head
  save budget

period 243 step 18 
  save head
  save budget

period 244 step 18 
  save head
  save budget

period 245 step 18 
  save head
  save budget

period 246 step 18 
  save head
  save budget

period 247 step 18 
  save head
  save budget

period 248 step 18 
  save head
  save budget

period 249 step 18 
  save head
  save budget

period 250 step 18 
  save head
  save budget

period 251 step 18 
  save head
  save budget

period 252 step 18 
  save head
  save budget

period 253 step 18 
  save head
  save budget

period 254 step 18 
  save head
  save budget

period 255 step 18 
  save head
  save budget

period 256 step 18 
  save head
  save budget

period 257 step 18 
  save head
  save budget

period 258 step 18 
  save head
  save budget

period 259 step 18 
  save head
  save budget

period 260 step 18 
  save head
  save budget

period 261 step 18 
  save head
  save budget

period 262 step 18 
  save head
  save budget

period 263 step 18 
  save head
  save budget

period 264 step 18 
  save head
  save budget

period 265 step 18 
  save head
  save budget

period 266 step 18 
  save head
  save budget

period 267 step 18 
  save head
  save budget

period 268 step 18 
  save head
  save budget

period 269 step 18 
  save head
  save budget

period 270 step 18 
  save head
  save budget

period 271 step 18 
  save head
  save budget

period 272 step 18 
  save head
  save budget

period 273 step 18 
  save head
  save budget

period 274 step 18 
  save head
  save budget

period 275 step 18 
  save head
  save budget

period 276 step 18 
  save head
  save budget

period 277 step 18 
  save head
  save budget

period 278 step 18 
  save head
  save budget

period 279 step 18 
  save head
  save budget

period 280 step 18 
  save head
  save budget

period 281 step 18 
  save head
  save budget

period 282 step 18 
  save head
  save budget

period 283 step 18 
  save head
  save budget

period 284 step 18 
  save head
  save budget

period 285 step 18 
  save head
  save budget

period 286 step 18 
  save head
  save budget

period 287 step 18 
  save head
  save budget

period 288 step 18 
  save head
  save budget

period 289 step 18 
  save head
  save budget

period 290 step 18 
  save head
  save budget

period 291 step 18 
  save head
  save budget

period 292 step 18 
  save head
  save budget

period 293 step 18 
  save head
  save budget

period 294 step 18 
  save head
  save budget

period 295 step 18 
  save head
  save budget

period 296 step 18 
  save head
  save budget

period 297 step 18 
  save head
  save budget

period 298 step 18 
  save head
  save budget

period 299 step 18 
  save head
  save budget

period 300 step 18 
  save head
  save budget

period 301 step 18 
  save head
  save budget

period 302 step 18 
  save head
  save budget

period 303 step 18 
  save head
  save budget

period 304 step 18 
  save head
  save budget

period 305 step 18 
  save head
  save budget

period 306 step 18 
  save head
  save budget

period 307 step 18 
  save head
  save budget

period 308 step 18 
  save head
  save budget

period 309 step 18 
  save head
  save budget

period 310 step 18 
  save head
  save budget

period 311 step 18 
  save head
  save budget

period 312 step 18 
  save head
  save budget

period 313 step 18 
  save head
  save budget

period 314 step 18 
  save head
  save budget

period 315 step 18 
  save head
  save budget

period 316 step 18 
  save head
  save budget

period 317 step 18 
  save head
  save budget

period 318 step 18 
  save head
  save budget

period 319 step 18 
  save head
  save budget

period 320 step 18 
  save head
  save budget

period 321 step 18 
  save head
  save budget

period 322 step 18 
  save head
  save budget

period 323 step 18 
  save head
  save budget

period 324 step 18 
  save head
  save budget

period 325 step 18 
  save head
  save budget

period 326 step 18 
  save head
  save budget

period 327 step 18 
  save head
  save budget

period 328 step 18 
  save head
  save budget

period 329 step 18 
  save head
  save budget

period 330 step 18 
  save head
  save budget

period 331 step 18 
  save head
  save budget

period 332 step 18 
  save head
  save budget

period 333 step 18 
  save head
  save budget

period 334 step 18 
  save head
  save budget

period 335 step 18 
  save head
  save budget

period 336 step 18 
  save head
  save budget

period 337 step 18 
  save head
  save budget

period 338 step 18 
  save head
  save budget

period 339 step 18 
  save head
  save budget

period 340 step 18 
  save head
  save budget

period 341 step 18 
  save head
  save budget

period 342 step 18 
  save head
  save budget

period 343 step 18 
  save head
  save budget

period 344 step 18 
  save head
  save budget

period 345 step 18 
  save head
  save budget

period 346 step 18 
  save head
  save budget

period 347 step 18 
  save head
  save budget

period 348 step 18 
  save head
  save budget

period 349 step 18 
  save head
  save budget

period 350 step 18 
  save head
  save budget

period 351 step 18 
  save head
  save budget

period 352 step 18 
  save head
  save budget

period 353 step 18 
  save head
  save budget

period 354 step 18 
  save head
  save budget

period 355 step 18 
  save head
  save budget

period 356 step 18 
  save head
  save budget

period 357 step 18 
  save head
  save budget

period 358 step 18 
  save head
  save budget

period 359 step 18 
  save head
  save budget

period 360 step 18 
  save head
  save budget

period 361 step 18 
  save head
  save budget

period 362 step 18 
  save head
  save budget

period 363 step 18 
  save head
  save budget

period 364 step 18 
  save head
  save budget

period 365 step 18 
  save head
  save budget

