# File generated by Flopy version 3.6.0 on 04/05/2024 at 20:33:58.
BEGIN options
  PRINT_OPTION  summary
  COMPLEXITY  simple
END options

