# File generated by Flopy version 3.6.0 on 04/12/2024 at 17:21:33.
BEGIN options
  SAVE_FLOWS
END options

BEGIN griddata
  iconvert  LAYERED
    CONSTANT  1
    CONSTANT  0
    CONSTANT  0
    CONSTANT  0
  ss  LAYERED
    INTERNAL  FACTOR  1.0
           0.00900000       0.00900000       0.00900000       0.00900000       0.00900000       0.00900000       0.00900000       0.00900000       0.00900000       0.00900000       0.00900000       0.00900000       0.00900000       0.00900000       0.00900000       0.00900000       0.00900000       0.00900000       0.00900000       0.00900000       0.00900000       0.00900000       0.00900000       0.00900000       0.00900000       0.00900000       0.00900000       0.00900000       0.00900000       0.00900000       0.00900000       0.00900000       0.00900000       0.00900000       0.00900000       0.00900000       0.00900000       0.00900000       0.00900000       0.00900000       0.00900000       0.00900000       0.00900000       0.00900000       0.00900000       0.00900000       0.00900000       0.00900000       0.00900000       0.00900000       0.00900000       0.00900000       0.00900000       0.00900000       0.00900000       0.00900000       0.00900000       0.00900000       0.00900000       0.00900000       0.00900000       0.00900000       0.00900000       0.00900000       0.00900000       0.00900000
           0.00900000       0.00900000       0.00900000       0.00900000       0.00900000       0.00900000       0.00900000       0.00900000       0.00900000       0.00900000       0.00900000       0.00900000       0.00900000       0.00900000       0.00900000       0.00900000       0.00900000       0.00900000       0.00900000       0.00900000       0.00900000       0.00900000       0.00900000       0.00900000       0.00900000       0.00900000       0.00900000       0.00900000       0.00900000       0.00900000       0.00900000       0.00900000       0.00900000       0.00900000       0.00900000       0.00900000       0.00900000       0.00900000       0.00900000       0.00900000       0.00900000       0.00900000       0.00900000       0.00900000       0.00900000       0.00900000       0.00900000       0.00900000       0.00900000       0.00900000       0.00900000       0.00900000       0.00900000       0.00900000       0.00900000       0.00900000       0.00900000       0.00900000       0.00900000       0.00900000       0.00900000       0.00900000       0.00900000       0.00900000       0.00900000       0.00900000
           0.00900000       0.00900000       0.00900000       0.00900000       0.00900000       0.00900000       0.00900000       0.00900000       0.00900000       0.00900000       0.00900000       0.00900000       0.00900000       0.00900000       0.00900000       0.00900000       0.00900000       0.00900000       0.00900000       0.00900000       0.00900000       0.00900000       0.00900000       0.00900000       0.00900000       0.00900000       0.00900000       0.00900000       0.00900000       0.00900000       0.00900000       0.00900000       0.00900000       0.00900000       0.00900000       0.00900000       0.00900000       0.00900000       0.00900000       0.00900000       0.00900000       0.00900000       0.00900000       0.00900000       0.00900000       0.00900000       0.00900000       0.00900000       0.00900000       0.00900000       0.00900000       0.00900000       0.00900000       0.00900000       0.00900000       0.00900000       0.00900000       0.00900000       0.00900000       0.00900000       0.00900000       0.00900000       0.00900000       0.00900000       0.00900000       0.00900000
           0.00900000       0.00900000       0.00900000       0.00900000       0.00900000       0.00900000       0.00900000       0.00900000       0.00900000       0.00900000       0.00900000       0.00900000       0.00900000       0.00900000       0.00900000       0.00900000       0.00900000       0.00900000       0.00900000       0.00900000       0.00900000       0.00900000       0.00900000       0.00900000       0.00900000       0.00900000       0.00900000       0.00900000       0.00900000       0.00900000       0.00900000       0.00900000       0.00900000       0.00900000       0.00900000       0.00900000       0.00900000       0.00900000       0.00900000       0.00900000       0.00900000       0.00900000       0.00900000       0.00900000       0.00900000       0.00900000       0.00900000       0.00900000       0.00900000       0.00900000       0.00900000       0.00900000       0.00900000       0.00900000       0.00900000       0.00900000       0.00900000       0.00900000       0.00900000       0.00900000       0.00900000       0.00900000       0.00900000       0.00900000       0.00900000       0.00900000
           0.00900000       0.00900000       0.00900000       0.00900000       0.00900000       0.00900000       0.00900000       0.00900000       0.00900000       0.00900000       0.00900000       0.00900000       0.00900000       0.00900000       0.00900000       0.00900000       0.00900000       0.00900000       0.00900000       0.00900000       0.00900000       0.00900000       0.00900000       0.00900000       0.00900000       0.00900000       0.00900000       0.00900000       0.00900000       0.00900000       0.00900000       0.00900000       0.00900000       0.00900000       0.00900000       0.00900000       0.00900000       0.00900000       0.00900000       0.00900000       0.00900000       0.00900000       0.00900000       0.00900000       0.00900000       0.00900000       0.00900000       0.00900000       0.00900000       0.00900000       0.00900000       0.00900000       0.00900000       0.00900000       0.00900000       0.00900000       0.00900000       0.00900000       0.00900000       0.00900000       0.00900000       0.00900000       0.00900000       0.00900000       0.00900000       0.00900000
           0.00900000       0.00900000       0.00900000       0.00900000       0.00900000       0.00900000       0.00900000       0.00900000       0.00900000       0.00900000       0.00900000       0.00900000       0.00900000       0.00900000       0.00900000       0.00900000       0.00900000       0.00900000       0.00900000       0.00900000       0.00900000       0.00900000       0.00900000       0.00900000       0.00900000       0.00900000       0.00900000       0.00900000       0.00900000       0.00900000       0.00900000       0.00900000       0.00900000       0.00900000       0.00900000       0.00900000       0.00900000       0.00900000       0.00900000       0.00900000       0.00900000       0.00900000       0.00900000       0.00900000       0.00900000       0.00900000       0.00900000       0.00900000       0.00900000       0.00900000       0.00900000       0.00900000       0.00900000       0.00900000       0.00900000       0.00900000       0.00900000       0.00900000       0.00900000       0.00900000       0.00900000       0.00900000       0.00900000       0.00900000       0.00900000       0.00900000
           0.00900000       0.00900000       0.00900000       0.00900000       0.00900000       0.00900000       0.00900000       0.00900000       0.00900000       0.00900000       0.00900000       0.00900000       0.00900000       0.00900000       0.00900000       0.00900000       0.00900000       0.00900000       0.00900000       0.00900000       0.00900000       0.00900000       0.00900000       0.00900000       0.00900000       0.00900000       0.00900000       0.00900000       0.00900000       0.00900000       0.00900000       0.00900000       0.00900000       0.00900000       0.00900000       0.00900000       0.00900000       0.00900000       0.00900000       0.00900000       0.00900000       0.00900000       0.00900000       0.00900000       0.00900000       0.00900000       0.00900000       0.00900000       0.00900000       0.00900000       0.00900000       0.00900000       0.00900000       0.00900000       0.00900000       0.00900000       0.00900000       0.00900000       0.00900000       0.00900000       0.00900000       0.00900000       0.00900000       0.00900000       0.00900000       0.00900000
           0.00900000       0.00900000       0.00900000       0.00900000       0.00900000       0.00900000       0.00900000       0.00900000       0.00900000       0.00900000       0.00900000       0.00900000       0.00900000       0.00900000       0.00900000       0.00900000       0.00900000       0.00900000       0.00900000       0.00900000       0.00900000       0.00900000       0.00900000       0.00900000       0.00900000       0.00900000       0.00900000       0.00900000       0.00900000       0.00900000       0.00900000       0.00900000       0.00900000       0.00900000       0.00900000       0.00900000       0.00900000       0.00900000       0.00900000       0.00900000       0.00900000       0.00900000       0.00900000       0.00900000       0.00900000       0.00900000       0.00900000       0.00900000       0.00900000       0.00900000       0.00900000       0.00900000       0.00900000       0.00900000       0.00900000       0.00900000       0.00900000       0.00900000       0.00900000       0.00900000       0.00900000       0.00900000       0.00900000       0.00900000       0.00900000       0.00900000
           0.00900000       0.00900000       0.00900000       0.00900000       0.00900000       0.00900000       0.00900000       0.00900000       0.00900000       0.00900000       0.00900000       0.00900000       0.00900000       0.00900000       0.00900000       0.00900000       0.00900000       0.00900000       0.00900000       0.00900000       0.00900000       0.00900000       0.00900000       0.00900000       0.00900000       0.00900000       0.00900000       0.00900000       0.00900000       0.00900000       0.00900000       0.00900000       0.00900000       0.00900000       0.00900000       0.00900000       0.00900000       0.00900000       0.00900000       0.00900000       0.00900000       0.00900000       0.00900000       0.00900000       0.00900000       0.00900000       0.00900000       0.00900000       0.00900000       0.00900000       0.00900000       0.00900000       0.00900000       0.00900000       0.00900000       0.00900000       0.00900000       0.00900000       0.00900000       0.00900000       0.00900000       0.00900000       0.00900000       0.00900000       0.00900000       0.00900000
           0.00900000       0.00900000       0.00900000       0.00900000       0.00900000       0.00900000       0.00900000       0.00900000       0.00900000       0.00900000       0.00900000       0.00900000       0.00900000       0.00900000       0.00900000       0.00900000       0.00900000       0.00900000       0.00900000       0.00900000       0.00900000       0.00900000       0.00900000       0.00900000       0.00900000       0.00900000       0.00900000       0.00900000       0.00900000       0.00900000       0.00900000       0.00900000       0.00900000       0.00900000       0.00900000       0.00900000       0.00900000       0.00900000       0.00900000       0.00900000       0.00900000       0.00900000       0.00900000       0.00900000       0.00900000       0.00900000       0.00900000       0.00900000       0.00900000       0.00900000       0.00900000       0.00900000       0.00900000       0.00900000       0.00900000       0.00900000       0.00900000       0.00900000       0.00900000       0.00900000       0.00900000       0.00900000       0.00900000       0.00900000       0.00900000       0.00900000
           0.00900000       0.00900000       0.00900000       0.00900000       0.00900000       0.00900000       0.00900000       0.00900000       0.00900000       0.00900000       0.00900000       0.00900000       0.00900000       0.00900000       0.00900000       0.00900000       0.00900000       0.00900000       0.00900000       0.00900000       0.00900000       0.00900000       0.00900000       0.00900000       0.00900000       0.00900000       0.00900000       0.00900000       0.00900000       0.00900000       0.00900000       0.00900000       0.00900000       0.00900000       0.00900000       0.00900000       0.00900000       0.00900000       0.00900000       0.00900000       0.00900000       0.00900000       0.00900000       0.00900000       0.00900000       0.00900000       0.00900000       0.00900000       0.00900000       0.00900000       0.00900000       0.00900000       0.00900000       0.00900000       0.00900000       0.00900000       0.00900000       0.00900000       0.00900000       0.00900000       0.00900000       0.00900000       0.00900000       0.00900000       0.00900000       0.00900000
           0.00900000       0.00900000       0.00900000       0.00900000       0.00900000       0.00900000       0.00900000       0.00900000       0.00900000       0.00900000       0.00900000       0.00900000       0.00900000       0.00900000       0.00900000       0.00900000       0.00900000       0.00900000       0.00900000       0.00900000       0.00900000       0.00900000       0.00900000       0.00900000       0.00900000       0.00900000       0.00900000       0.00900000       0.00900000       0.00900000       0.00900000       0.00900000       0.00900000       0.00900000       0.00900000       0.00900000       0.00900000       0.00900000       0.00900000       0.00900000       0.00900000       0.00900000       0.00900000       0.00900000       0.00900000       0.00900000       0.00900000       0.00900000       0.00900000       0.00900000       0.00900000       0.00900000       0.00900000       0.00900000       0.00900000       0.00900000       0.00900000       0.00900000       0.00900000       0.00900000       0.00900000       0.00900000       0.00900000       0.00900000       0.00900000       0.00900000
           0.00900000       0.00900000       0.00900000       0.00900000       0.00900000       0.00900000       0.00900000       0.00900000       0.00900000       0.00900000       0.00900000       0.00900000       0.00900000       0.00900000       0.00900000       0.00900000       0.00900000       0.00900000       0.00900000       0.00900000       0.00900000       0.00900000       0.00900000       0.00900000       0.00900000       0.00900000       0.00900000       0.00900000       0.00900000       0.00900000       0.00900000       0.00900000       0.00900000       0.00900000       0.00900000       0.00900000       0.00900000       0.00900000       0.00900000       0.00900000       0.00900000       0.00900000       0.00900000       0.00900000       0.00900000       0.00900000       0.00900000       0.00900000       0.00900000       0.00900000       0.00900000       0.00900000       0.00900000       0.00900000       0.00900000       0.00900000       0.00900000       0.00900000       0.00900000       0.00900000       0.00900000       0.00900000       0.00900000       0.00900000       0.00900000       0.00900000
           0.00900000       0.00900000       0.00900000       0.00900000       0.00900000       0.00900000       0.00900000       0.00900000       0.00900000       0.00900000       0.00900000       0.00900000       0.00900000       0.00900000       0.00900000       0.00900000       0.00900000       0.00900000       0.00900000       0.00900000       0.00900000       0.00900000       0.00900000       0.00900000       0.00900000       0.00900000       0.00900000       0.00900000       0.00900000       0.00900000       0.00900000       0.00900000       0.00900000       0.00900000       0.00900000       0.00900000       0.00900000       0.00900000       0.00900000       0.00900000       0.00900000       0.00900000       0.00900000       0.00900000       0.00900000       0.00900000       0.00900000       0.00900000       0.00900000       0.00900000       0.00900000       0.00900000       0.00900000       0.00900000       0.00900000       0.00900000       0.00900000       0.00900000       0.00900000       0.00900000       0.00900000       0.00900000       0.00900000       0.00900000       0.00900000       0.00900000
           0.00900000       0.00900000       0.00900000       0.00900000       0.00900000       0.00900000       0.00900000       0.00900000       0.00900000       0.00900000       0.00900000       0.00900000       0.00900000       0.00900000       0.00900000       0.00900000       0.00900000       0.00900000       0.00900000       0.00900000       0.00900000       0.00900000       0.00900000       0.00900000       0.00900000       0.00900000       0.00900000       0.00900000       0.00900000       0.00900000       0.00900000       0.00900000       0.00900000       0.00900000       0.00900000       0.00900000       0.00900000       0.00900000       0.00900000       0.00900000       0.00900000       0.00900000       0.00900000       0.00900000       0.00900000       0.00900000       0.00900000       0.00900000       0.00900000       0.00900000       0.00900000       0.00900000       0.00900000       0.00900000       0.00900000       0.00900000       0.00900000       0.00900000       0.00900000       0.00900000       0.00900000       0.00900000       0.00900000       0.00900000       0.00900000       0.00900000
           0.00900000       0.00900000       0.00900000       0.00900000       0.00900000       0.00900000       0.00900000       0.00900000       0.00900000       0.00900000       0.00900000       0.00900000       0.00900000       0.00900000       0.00900000       0.00900000       0.00900000       0.00900000       0.00900000       0.00900000       0.00900000       0.00900000       0.00900000       0.00900000       0.00900000       0.00900000       0.00900000       0.00900000       0.00900000       0.00900000       0.00900000       0.00900000       0.00900000       0.00900000       0.00900000       0.00900000       0.00900000       0.00900000       0.00900000       0.00900000       0.00900000       0.00900000       0.00900000       0.00900000       0.00900000       0.00900000       0.00900000       0.00900000       0.00900000       0.00900000       0.00900000       0.00900000       0.00900000       0.00900000       0.00900000       0.00900000       0.00900000       0.00900000       0.00900000       0.00900000       0.00900000       0.00900000       0.00900000       0.00900000       0.00900000       0.00900000
           0.00900000       0.00900000       0.00900000       0.00900000       0.00900000       0.00900000       0.00900000       0.00900000       0.00900000       0.00900000       0.00900000       0.00900000       0.00900000       0.00900000       0.00900000       0.00900000       0.00900000       0.00900000       0.00900000       0.00900000       0.00900000       0.00900000       0.00900000       0.00900000       0.00900000       0.00900000       0.00900000       0.00900000       0.00900000       0.00900000       0.00900000       0.00900000       0.00900000       0.00900000       0.00900000       0.00900000       0.00900000       0.00900000       0.00900000       0.00900000       0.00900000       0.00900000       0.00900000       0.00900000       0.00900000       0.00900000       0.00900000       0.00900000       0.00900000       0.00900000       0.00900000       0.00900000       0.00900000       0.00900000       0.00900000       0.00900000       0.00900000       0.00900000       0.00900000       0.00900000       0.00900000       0.00900000       0.00900000       0.00900000       0.00900000       0.00900000
           0.00900000       0.00900000       0.00900000       0.00900000       0.00900000       0.00900000       0.00900000       0.00900000       0.00900000       0.00900000       0.00900000       0.00900000       0.00900000       0.00900000       0.00900000       0.00900000       0.00900000       0.00900000       0.00900000       0.00900000       0.00900000       0.00900000       0.00900000       0.00900000       0.00900000       0.00900000       0.00900000       0.00900000       0.00900000       0.00900000       0.00900000       0.00900000       0.00900000       0.00900000       0.00900000       0.00900000       0.00900000       0.00900000       0.00900000       0.00900000       0.00900000       0.00900000       0.00900000       0.00900000       0.00900000       0.00900000       0.00900000       0.00900000       0.00900000       0.00900000       0.00900000       0.00900000       0.00900000       0.00900000       0.00900000       0.00900000       0.00900000       0.00900000       0.00900000       0.00900000       0.00900000       0.00900000       0.00900000       0.00900000       0.00900000       0.00900000
           0.00900000       0.00900000       0.00900000       0.00900000       0.00900000       0.00900000       0.00900000       0.00900000       0.00900000       0.00900000       0.00900000       0.00900000       0.00900000       0.00900000       0.00900000       0.00900000       0.00900000       0.00900000       0.00900000       0.00900000       0.00900000       0.00900000       0.00900000       0.00900000       0.00900000       0.00900000       0.00900000       0.00900000       0.00900000       0.00900000       0.00900000       0.00900000       0.00900000       0.00900000       0.00900000       0.00900000       0.00900000       0.00900000       0.00900000       0.00900000       0.00900000       0.00900000       0.00900000       0.00900000       0.00900000       0.00900000       0.00900000       0.00900000       0.00900000       0.00900000       0.00900000       0.00900000       0.00900000       0.00900000       0.00900000       0.00900000       0.00900000       0.00900000       0.00900000       0.00900000       0.00900000       0.00900000       0.00900000       0.00900000       0.00900000       0.00900000
           0.00900000       0.00900000       0.00900000       0.00900000       0.00900000       0.00900000       0.00900000       0.00900000       0.00900000       0.00900000       0.00900000       0.00900000       0.00900000       0.00900000       0.00900000       0.00900000       0.00900000       0.00900000       0.00900000       0.00900000       0.00900000       0.00900000       0.00900000       0.00900000       0.00900000       0.00900000       0.00900000       0.00900000       0.00900000       0.00900000       0.00900000       0.00900000       0.00900000       0.00900000       0.00900000       0.00900000       0.00900000       0.00900000       0.00900000       0.00900000       0.00900000       0.00900000       0.00900000       0.00900000       0.00900000       0.00900000       0.00900000       0.00900000       0.00900000       0.00900000       0.00900000       0.00900000       0.00900000       0.00900000       0.00900000       0.00900000       0.00900000       0.00900000       0.00900000       0.00900000       0.00900000       0.00900000       0.00900000       0.00900000       0.00900000       0.00900000
           0.00900000       0.00900000       0.00900000       0.00900000       0.00900000       0.00900000       0.00900000       0.00900000       0.00900000       0.00900000       0.00900000       0.00900000       0.00900000       0.00900000       0.00900000       0.00900000       0.00900000       0.00900000       0.00900000       0.00900000       0.00900000       0.00900000       0.00900000       0.00900000       0.00900000       0.00900000       0.00900000       0.00900000       0.00900000       0.00900000       0.00900000       0.00900000       0.00900000       0.00900000       0.00900000       0.00900000       0.00900000       0.00900000       0.00900000       0.00900000       0.00900000       0.00900000       0.00900000       0.00900000       0.00900000       0.00900000       0.00900000       0.00900000       0.00900000       0.00900000       0.00900000       0.00900000       0.00900000       0.00900000       0.00900000       0.00900000       0.00900000       0.00900000       0.00900000       0.00900000       0.00900000       0.00900000       0.00900000       0.00900000       0.00900000       0.00900000
           0.00900000       0.00900000       0.00900000       0.00900000       0.00900000       0.00900000       0.00900000       0.00900000       0.00900000       0.00900000       0.00900000       0.00900000       0.00900000       0.00900000       0.00900000       0.00900000       0.00900000       0.00900000       0.00900000       0.00900000       0.00900000       0.00900000       0.00900000       0.00900000       0.00900000       0.00900000       0.00900000       0.00900000       0.00900000       0.00900000       0.00900000       0.00900000       0.00900000       0.00900000       0.00900000       0.00900000       0.00900000       0.00900000       0.00900000       0.00900000       0.00900000       0.00900000       0.00900000       0.00900000       0.00900000       0.00900000       0.00900000       0.00900000       0.00900000       0.00900000       0.00900000       0.00900000       0.00900000       0.00900000       0.00900000       0.00900000       0.00900000       0.00900000       0.00900000       0.00900000       0.00900000       0.00900000       0.00900000       0.00900000       0.00900000       0.00900000
           0.00900000       0.00900000       0.00900000       0.00900000       0.00900000       0.00900000       0.00900000       0.00900000       0.00900000       0.00900000       0.00900000       0.00900000       0.00900000       0.00900000       0.00900000       0.00900000       0.00900000       0.00900000       0.00900000       0.00900000       0.00900000       0.00900000       0.00900000       0.00900000       0.00900000       0.00900000       0.00900000       0.00900000       0.00900000       0.00900000       0.00900000       0.00900000       0.00900000       0.00900000       0.00900000       0.00900000       0.00900000       0.00900000       0.00900000       0.00900000       0.00900000       0.00900000       0.00900000       0.00900000       0.00900000       0.00900000       0.00900000       0.00900000       0.00900000       0.00900000       0.00900000       0.00900000       0.00900000       0.00900000       0.00900000       0.00900000       0.00900000       0.00900000       0.00900000       0.00900000       0.00900000       0.00900000       0.00900000       0.00900000       0.00900000       0.00900000
           0.00900000       0.00900000       0.00900000       0.00900000       0.00900000       0.00900000       0.00900000       0.00900000       0.00900000       0.00900000       0.00900000       0.00900000       0.00900000       0.00900000       0.00900000       0.00900000       0.00900000       0.00900000       0.00900000       0.00900000       0.00900000       0.00900000       0.00900000       0.00900000       0.00900000       0.00900000       0.00900000       0.00900000       0.00900000       0.00900000       0.00900000       0.00900000       0.00900000       0.00900000       0.00900000       0.00900000       0.00900000       0.00900000       0.00900000       0.00900000       0.00900000       0.00900000       0.00900000       0.00900000       0.00900000       0.00900000       0.00900000       0.00900000       0.00900000       0.00900000       0.00900000       0.00900000       0.00900000       0.00900000       0.00900000       0.00900000       0.00900000       0.00900000       0.00900000       0.00900000       0.00900000       0.00900000       0.00900000       0.00900000       0.00900000       0.00900000
           0.00900000       0.00900000       0.00900000       0.00900000       0.00900000       0.00900000       0.00900000       0.00900000       0.00900000       0.00900000       0.00900000       0.00900000       0.00900000       0.00900000       0.00900000       0.00900000       0.00900000       0.00900000       0.00900000       0.00900000       0.00900000       0.00900000       0.00900000       0.00900000       0.00900000       0.00900000       0.00900000       0.00900000       0.00900000       0.00900000       0.00900000       0.00900000       0.00900000       0.00900000       0.00900000       0.00900000       0.00900000       0.00900000       0.00900000       0.00900000       0.00900000       0.00900000       0.00900000       0.00900000       0.00900000       0.00900000       0.00900000       0.00900000       0.00900000       0.00900000       0.00900000       0.00900000       0.00900000       0.00900000       0.00900000       0.00900000       0.00900000       0.00900000       0.00900000       0.00900000       0.00900000       0.00900000       0.00900000       0.00900000       0.00900000       0.00900000
           0.00900000       0.00900000       0.00900000       0.00900000       0.00900000       0.00900000       0.00900000       0.00900000       0.00900000       0.00900000       0.00900000       0.00900000       0.00900000       0.00900000       0.00900000       0.00900000       0.00900000       0.00900000       0.00900000       0.00900000       0.00900000       0.00900000       0.00900000       0.00900000       0.00900000       0.00900000       0.00900000       0.00900000       0.00900000       0.00900000       0.00900000       0.00900000       0.00900000       0.00900000       0.00900000       0.00900000       0.00900000       0.00900000       0.00900000       0.00900000       0.00900000       0.00900000       0.00900000       0.00900000       0.00900000       0.00900000       0.00900000       0.00900000       0.00900000       0.00900000       0.00900000       0.00900000       0.00900000       0.00900000       0.00900000       0.00900000       0.00900000       0.00900000       0.00900000       0.00900000       0.00900000       0.00900000       0.00900000       0.00900000       0.00900000       0.00900000