# File generated by Flopy version 3.6.0 on 04/05/2024 at 20:33:59.
BEGIN griddata
  strt  LAYERED
    INTERNAL  FACTOR  1.0
      1.00000000E+30  1.00000000E+30  1.00000000E+30  1.00000000E+30  1.00000000E+30  1.00000000E+30  1.00000000E+30  1.00000000E+30  1.00000000E+30  1.00000000E+30  1.00000000E+30  1.00000000E+30  1.00000000E+30  1.00000000E+30  1.00000000E+30  1.00000000E+30  1.00000000E+30  1.00000000E+30  1.00000000E+30  1.00000000E+30  1.00000000E+30  1.00000000E+30  1.00000000E+30  1.00000000E+30  1.00000000E+30  1.00000000E+30  1.00000000E+30  1.00000000E+30  1.00000000E+30  1.00000000E+30  1.00000000E+30  1.00000000E+30  1.00000000E+30  1.00000000E+30  1.00000000E+30  1.00000000E+30  1.00000000E+30  1.00000000E+30  1.00000000E+30  1.00000000E+30  1.00000000E+30  1.00000000E+30  1.00000000E+30  1.00000000E+30  1.00000000E+30  1.00000000E+30  1.00000000E+30  1.00000000E+30  1.00000000E+30  1.00000000E+30  1.00000000E+30  1.00000000E+30  1.00000000E+30  1.00000000E+30  1.00000000E+30  1.00000000E+30  1.00000000E+30  1.00000000E+30  1.00000000E+30  1.00000000E+30  1.00000000E+30  1.00000000E+30  1.00000000E+30  1.00000000E+30  1.00000000E+30  1.00000000E+30
      1.00000000E+30  1.00000000E+30  1.00000000E+30  1.00000000E+30  1.00000000E+30  1.00000000E+30  1.00000000E+30  1.00000000E+30  1.00000000E+30  1.00000000E+30  1.00000000E+30  1.00000000E+30  1.00000000E+30  1.00000000E+30  1.00000000E+30  1.00000000E+30  1.00000000E+30  1.00000000E+30  1.00000000E+30  1.00000000E+30  1.00000000E+30  1.00000000E+30  1.00000000E+30  1.00000000E+30  1.00000000E+30  1.00000000E+30  1.00000000E+30  1.00000000E+30  1.00000000E+30  1.00000000E+30  1.00000000E+30  1.00000000E+30  1.00000000E+30  1.00000000E+30  1.00000000E+30  1.00000000E+30  1.00000000E+30  1.00000000E+30  1.00000000E+30  1.00000000E+30  1.00000000E+30  1.00000000E+30  1.00000000E+30  1.00000000E+30  1.00000000E+30  1.00000000E+30  1.00000000E+30  1.00000000E+30  1.00000000E+30  1.00000000E+30  1.00000000E+30  1.00000000E+30       5.27828297  1.00000000E+30  1.00000000E+30  1.00000000E+30  1.00000000E+30  1.00000000E+30  1.00000000E+30  1.00000000E+30  1.00000000E+30  1.00000000E+30  1.00000000E+30  1.00000000E+30  1.00000000E+30  1.00000000E+30
      1.00000000E+30  1.00000000E+30  1.00000000E+30  1.00000000E+30  1.00000000E+30  1.00000000E+30  1.00000000E+30  1.00000000E+30  1.00000000E+30  1.00000000E+30  1.00000000E+30  1.00000000E+30  1.00000000E+30  1.00000000E+30  1.00000000E+30  1.00000000E+30  1.00000000E+30  1.00000000E+30  1.00000000E+30  1.00000000E+30  1.00000000E+30  1.00000000E+30  1.00000000E+30  1.00000000E+30  1.00000000E+30  1.00000000E+30  1.00000000E+30  1.00000000E+30  1.00000000E+30  1.00000000E+30  1.00000000E+30  1.00000000E+30  1.00000000E+30  1.00000000E+30  1.00000000E+30  1.00000000E+30  1.00000000E+30  1.00000000E+30  1.00000000E+30  1.00000000E+30  1.00000000E+30  1.00000000E+30  1.00000000E+30  1.00000000E+30  1.00000000E+30  1.00000000E+30  1.00000000E+30  1.00000000E+30  1.00000000E+30  1.00000000E+30  1.00000000E+30  1.00000000E+30       5.32697130  1.00000000E+30  1.00000000E+30  1.00000000E+30  1.00000000E+30  1.00000000E+30  1.00000000E+30  1.00000000E+30  1.00000000E+30  1.00000000E+30  1.00000000E+30  1.00000000E+30  1.00000000E+30  1.00000000E+30
      1.00000000E+30  1.00000000E+30  1.00000000E+30  1.00000000E+30  1.00000000E+30  1.00000000E+30  1.00000000E+30  1.00000000E+30  1.00000000E+30  1.00000000E+30  1.00000000E+30  1.00000000E+30  1.00000000E+30  1.00000000E+30  1.00000000E+30  1.00000000E+30  1.00000000E+30  1.00000000E+30  1.00000000E+30  1.00000000E+30  1.00000000E+30  1.00000000E+30  1.00000000E+30  1.00000000E+30  1.00000000E+30  1.00000000E+30  1.00000000E+30  1.00000000E+30  1.00000000E+30  1.00000000E+30  1.00000000E+30  1.00000000E+30  1.00000000E+30  1.00000000E+30  1.00000000E+30  1.00000000E+30  1.00000000E+30  1.00000000E+30  1.00000000E+30  1.00000000E+30  1.00000000E+30  1.00000000E+30  1.00000000E+30  1.00000000E+30  1.00000000E+30  1.00000000E+30  1.00000000E+30  1.00000000E+30  1.00000000E+30  1.00000000E+30  1.00000000E+30  1.00000000E+30       9.50725510       9.74982661  1.00000000E+30  1.00000000E+30  1.00000000E+30  1.00000000E+30  1.00000000E+30  1.00000000E+30  1.00000000E+30  1.00000000E+30  1.00000000E+30  1.00000000E+30  1.00000000E+30  1.00000000E+30
      1.00000000E+30  1.00000000E+30  1.00000000E+30  1.00000000E+30  1.00000000E+30  1.00000000E+30  1.00000000E+30  1.00000000E+30  1.00000000E+30  1.00000000E+30  1.00000000E+30  1.00000000E+30  1.00000000E+30  1.00000000E+30  1.00000000E+30  1.00000000E+30  1.00000000E+30  1.00000000E+30  1.00000000E+30  1.00000000E+30  1.00000000E+30  1.00000000E+30  1.00000000E+30  1.00000000E+30  1.00000000E+30  1.00000000E+30  1.00000000E+30  1.00000000E+30  1.00000000E+30  1.00000000E+30  1.00000000E+30  1.00000000E+30  1.00000000E+30  1.00000000E+30  1.00000000E+30  1.00000000E+30  1.00000000E+30  1.00000000E+30  1.00000000E+30  1.00000000E+30  1.00000000E+30  1.00000000E+30  1.00000000E+30  1.00000000E+30  1.00000000E+30  1.00000000E+30  1.00000000E+30  1.00000000E+30  1.00000000E+30  1.00000000E+30  1.00000000E+30      10.35995091       9.70036394       9.50479175       7.84223683  1.00000000E+30  1.00000000E+30  1.00000000E+30  1.00000000E+30  1.00000000E+30  1.00000000E+30  1.00000000E+30  1.00000000E+30  1.00000000E+30  1.00000000E+30  1.00000000E+30
      1.00000000E+30  1.00000000E+30  1.00000000E+30  1.00000000E+30  1.00000000E+30  1.00000000E+30  1.00000000E+30  1.00000000E+30  1.00000000E+30  1.00000000E+30  1.00000000E+30  1.00000000E+30  1.00000000E+30  1.00000000E+30  1.00000000E+30  1.00000000E+30  1.00000000E+30  1.00000000E+30  1.00000000E+30  1.00000000E+30  1.00000000E+30  1.00000000E+30  1.00000000E+30  1.00000000E+30  1.00000000E+30  1.00000000E+30  1.00000000E+30  1.00000000E+30  1.00000000E+30  1.00000000E+30  1.00000000E+30  1.00000000E+30  1.00000000E+30  1.00000000E+30  1.00000000E+30  1.00000000E+30  1.00000000E+30  1.00000000E+30  1.00000000E+30  1.00000000E+30  1.00000000E+30  1.00000000E+30  1.00000000E+30  1.00000000E+30  1.00000000E+30  1.00000000E+30  1.00000000E+30  1.00000000E+30  1.00000000E+30  1.00000000E+30  1.00000000E+30      10.08454822       9.56303334       9.18283649       7.95227664       7.85257982  1.00000000E+30  1.00000000E+30  1.00000000E+30  1.00000000E+30  1.00000000E+30  1.00000000E+30  1.00000000E+30  1.00000000E+30  1.00000000E+30  1.00000000E+30
      1.00000000E+30  1.00000000E+30  1.00000000E+30  1.00000000E+30  1.00000000E+30  1.00000000E+30  1.00000000E+30  1.00000000E+30  1.00000000E+30  1.00000000E+30  1.00000000E+30  1.00000000E+30  1.00000000E+30  1.00000000E+30  1.00000000E+30  1.00000000E+30  1.00000000E+30  1.00000000E+30  1.00000000E+30  1.00000000E+30  1.00000000E+30  1.00000000E+30  1.00000000E+30  1.00000000E+30  1.00000000E+30  1.00000000E+30  1.00000000E+30  1.00000000E+30  1.00000000E+30  1.00000000E+30  1.00000000E+30  1.00000000E+30  1.00000000E+30  1.00000000E+30  1.00000000E+30  1.00000000E+30  1.00000000E+30  1.00000000E+30  1.00000000E+30  1.00000000E+30  1.00000000E+30  1.00000000E+30  1.00000000E+30  1.00000000E+30  1.00000000E+30  1.00000000E+30  1.00000000E+30  1.00000000E+30  1.00000000E+30  1.00000000E+30      13.11712579       9.62560196       8.71390795       8.46180337       8.10668338       7.76851759       7.29310927       6.89130420       6.75455412  1.00000000E+30  1.00000000E+30  1.00000000E+30  1.00000000E+30  1.00000000E+30  1.00000000E+30  1.00000000E+30
      1.00000000E+30  1.00000000E+30  1.00000000E+30  1.00000000E+30  1.00000000E+30  1.00000000E+30  1.00000000E+30  1.00000000E+30  1.00000000E+30  1.00000000E+30  1.00000000E+30  1.00000000E+30  1.00000000E+30  1.00000000E+30  1.00000000E+30  1.00000000E+30  1.00000000E+30  1.00000000E+30  1.00000000E+30  1.00000000E+30  1.00000000E+30  1.00000000E+30  1.00000000E+30  1.00000000E+30  1.00000000E+30  1.00000000E+30  1.00000000E+30  1.00000000E+30  1.00000000E+30  1.00000000E+30  1.00000000E+30  1.00000000E+30  1.00000000E+30  1.00000000E+30  1.00000000E+30  1.00000000E+30  1.00000000E+30  1.00000000E+30  1.00000000E+30  1.00000000E+30  1.00000000E+30  1.00000000E+30  1.00000000E+30  1.00000000E+30  1.00000000E+30  1.00000000E+30  1.00000000E+30  1.00000000E+30  1.00000000E+30  1.00000000E+30      11.07735359       9.17407200       8.89954647       8.55554895       8.23629048       7.88924657       7.50680505       7.13859813       6.77545095       6.35485586  1.00000000E+30  1.00000000E+30  1.00000000E+30  1.00000000E+30  1.00000000E+30  1.00000000E+30
      1.00000000E+30  1.00000000E+30  1.00000000E+30  1.00000000E+30  1.00000000E+30  1.00000000E+30  1.00000000E+30  1.00000000E+30  1.00000000E+30  1.00000000E+30  1.00000000E+30  1.00000000E+30  1.00000000E+30  1.00000000E+30  1.00000000E+30  1.00000000E+30  1.00000000E+30  1.00000000E+30  1.00000000E+30  1.00000000E+30  1.00000000E+30  1.00000000E+30  1.00000000E+30  1.00000000E+30  1.00000000E+30  1.00000000E+30  1.00000000E+30  1.00000000E+30  1.00000000E+30  1.00000000E+30  1.00000000E+30  1.00000000E+30  1.00000000E+30  1.00000000E+30  1.00000000E+30  1.00000000E+30  1.00000000E+30  1.00000000E+30  1.00000000E+30  1.00000000E+30  1.00000000E+30  1.00000000E+30  1.00000000E+30  1.00000000E+30  1.00000000E+30  1.00000000E+30  1.00000000E+30  1.00000000E+30  1.00000000E+30      11.45922689      11.38546071       9.12868804       8.80663921       8.59733344       8.33845927       8.02281732       7.70220033       7.31053448       7.06247761  1.00000000E+30  1.00000000E+30  1.00000000E+30  1.00000000E+30  1.00000000E+30  1.00000000E+30  1.00000000E+30
      1.00000000E+30  1.00000000E+30  1.00000000E+30  1.00000000E+30  1.00000000E+30  1.00000000E+30  1.00000000E+30  1.00000000E+30  1.00000000E+30  1.00000000E+30  1.00000000E+30  1.00000000E+30  1.00000000E+30  1.00000000E+30  1.00000000E+30  1.00000000E+30  1.00000000E+30  1.00000000E+30  1.00000000E+30  1.00000000E+30  1.00000000E+30  1.00000000E+30  1.00000000E+30  1.00000000E+30  1.00000000E+30  1.00000000E+30  1.00000000E+30  1.00000000E+30  1.00000000E+30  1.00000000E+30  1.00000000E+30  1.00000000E+30  1.00000000E+30  1.00000000E+30  1.00000000E+30  1.00000000E+30  1.00000000E+30  1.00000000E+30  1.00000000E+30  1.00000000E+30  1.00000000E+30  1.00000000E+30  1.00000000E+30  1.00000000E+30  1.00000000E+30  1.00000000E+30  1.00000000E+30      16.14166559      14.19594536      12.39833668      11.68667266       9.89578330       8.53326422       8.05617304       8.33889433       8.17220282       7.97316367  1.00000000E+30  1.00000000E+30  1.00000000E+30  1.00000000E+30  1.00000000E+30  1.00000000E+30  1.00000000E+30  1.00000000E+30  1.00000000E+30
      1.00000000E+30  1.00000000E+30  1.00000000E+30  1.00000000E+30  1.00000000E+30  1.00000000E+30  1.00000000E+30  1.00000000E+30  1.00000000E+30  1.00000000E+30  1.00000000E+30  1.00000000E+30  1.00000000E+30  1.00000000E+30  1.00000000E+30  1.00000000E+30  1.00000000E+30  1.00000000E+30  1.00000000E+30  1.00000000E+30  1.00000000E+30  1.00000000E+30  1.00000000E+30  1.00000000E+30  1.00000000E+30  1.00000000E+30  1.00000000E+30  1.00000000E+30  1.00000000E+30  1.00000000E+30  1.00000000E+30  1.00000000E+30  1.00000000E+30  1.00000000E+30  1.00000000E+30  1.00000000E+30  1.00000000E+30  1.00000000E+30  1.00000000E+30  1.00000000E+30  1.00000000E+30  1.00000000E+30  1.00000000E+30  1.00000000E+30  1.00000000E+30      17.82225075      17.27500605      16.05421517      15.23486626      13.67536840      11.66908187      10.08531685       8.30181715       7.98186441       8.26520790       8.24411587      10.04953069  1.00000000E+30  1.00000000E+30  1.00000000E+30  1.00000000E+30  1.00000000E+30  1.00000000E+30  1.00000000E+30  1.00000000E+30  1.00000000E+30
      1.00000000E+30  1.00000000E+30  1.00000000E+30  1.00000000E+30  1.00000000E+30  1.00000000E+30  1.00000000E+30  1.00000000E+30  1.00000000E+30  1.00000000E+30  1.00000000E+30  1.00000000E+30  1.00000000E+30  1.00000000E+30  1.00000000E+30  1.00000000E+30  1.00000000E+30  1.00000000E+30  1.00000000E+30  1.00000000E+30  1.00000000E+30  1.00000000E+30  1.00000000E+30  1.00000000E+30  1.00000000E+30  1.00000000E+30  1.00000000E+30  1.00000000E+30  1.00000000E+30  1.00000000E+30  1.00000000E+30  1.00000000E+30  1.00000000E+30  1.00000000E+30  1.00000000E+30  1.00000000E+30  1.00000000E+30  1.00000000E+30  1.00000000E+30  1.00000000E+30  1.00000000E+30  1.00000000E+30  1.00000000E+30      20.51997392      19.69369847      18.56039723      17.36760377      16.16879534      15.36101069      20.37148112      11.79249996       9.57758757       8.33570888       7.99098366       8.34783659       9.91703966      10.11466452  1.00000000E+30  1.00000000E+30  1.00000000E+30  1.00000000E+30  1.00000000E+30  1.00000000E+30  1.00000000E+30  1.00000000E+30  1.00000000E+30
      1.00000000E+30  1.00000000E+30  1.00000000E+30  1.00000000E+30  1.00000000E+30  1.00000000E+30  1.00000000E+30  1.00000000E+30  1.00000000E+30  1.00000000E+30  1.00000000E+30  1.00000000E+30  1.00000000E+30  1.00000000E+30  1.00000000E+30  1.00000000E+30  1.00000000E+30  1.00000000E+30  1.00000000E+30  1.00000000E+30  1.00000000E+30  1.00000000E+30  1.00000000E+30  1.00000000E+30  1.00000000E+30  1.00000000E+30  1.00000000E+30  1.00000000E+30  1.00000000E+30  1.00000000E+30  1.00000000E+30  1.00000000E+30  1.00000000E+30  1.00000000E+30  1.00000000E+30  1.00000000E+30  1.00000000E+30  1.00000000E+30  1.00000000E+30  1.00000000E+30  1.00000000E+30  1.00000000E+30      22.41152543      21.52847199      20.58786374      19.19781752      18.31593642      16.35073413      15.60639619      13.90210729      16.04642493       9.04774505       8.58059595       8.26449470       8.59925144       9.97490450       9.70305213  1.00000000E+30  1.00000000E+30  1.00000000E+30  1.00000000E+30  1.00000000E+30  1.00000000E+30  1.00000000E+30  1.00000000E+30  1.00000000E+30
      1.00000000E+30  1.00000000E+30  1.00000000E+30  1.00000000E+30  1.00000000E+30  1.00000000E+30  1.00000000E+30  1.00000000E+30  1.00000000E+30  1.00000000E+30  1.00000000E+30  1.00000000E+30  1.00000000E+30  1.00000000E+30  1.00000000E+30  1.00000000E+30  1.00000000E+30  1.00000000E+30  1.00000000E+30  1.00000000E+30  1.00000000E+30  1.00000000E+30  1.00000000E+30  1.00000000E+30  1.00000000E+30  1.00000000E+30  1.00000000E+30  1.00000000E+30  1.00000000E+30  1.00000000E+30  1.00000000E+30  1.00000000E+30  1.00000000E+30  1.00000000E+30  1.00000000E+30  1.00000000E+30  1.00000000E+30  1.00000000E+30  1.00000000E+30  1.00000000E+30      23.37055242      23.50228669      22.89137462      21.77461199      20.54375281      19.62779758      17.97287735      16.52454649      15.30783873      13.90675269      11.72650372       9.27253944       9.07965871       9.12267115       9.03923354       9.59153000       9.26949084  1.00000000E+30  1.00000000E+30  1.00000000E+30  1.00000000E+30  1.00000000E+30  1.00000000E+30  1.00000000E+30  1.00000000E+30  1.00000000E+30
      1.00000000E+30  1.00000000E+30  1.00000000E+30  1.00000000E+30  1.00000000E+30  1.00000000E+30  1.00000000E+30  1.00000000E+30  1.00000000E+30  1.00000000E+30  1.00000000E+30  1.00000000E+30  1.00000000E+30  1.00000000E+30  1.00000000E+30  1.00000000E+30  1.00000000E+30  1.00000000E+30  1.00000000E+30  1.00000000E+30  1.00000000E+30  1.00000000E+30  1.00000000E+30  1.00000000E+30  1.00000000E+30  1.00000000E+30  1.00000000E+30  1.00000000E+30  1.00000000E+30  1.00000000E+30  1.00000000E+30  1.00000000E+30  1.00000000E+30  1.00000000E+30  1.00000000E+30  1.00000000E+30  1.00000000E+30  1.00000000E+30  1.00000000E+30      23.97680855      23.67251521      23.59684963      23.34266811      23.24919999      20.63589808      18.02804022      17.18349296      16.04888336      14.73899563      13.37530836       9.84016727       9.58535799       9.19799980       9.24367993       9.13924497       9.69596704       9.60499192  1.00000000E+30  1.00000000E+30  1.00000000E+30  1.00000000E+30  1.00000000E+30  1.00000000E+30  1.00000000E+30  1.00000000E+30  1.00000000E+30
      1.00000000E+30  1.00000000E+30  1.00000000E+30  1.00000000E+30  1.00000000E+30  1.00000000E+30  1.00000000E+30  1.00000000E+30  1.00000000E+30  1.00000000E+30  1.00000000E+30  1.00000000E+30  1.00000000E+30  1.00000000E+30  1.00000000E+30  1.00000000E+30  1.00000000E+30  1.00000000E+30  1.00000000E+30  1.00000000E+30  1.00000000E+30  1.00000000E+30  1.00000000E+30  1.00000000E+30  1.00000000E+30  1.00000000E+30  1.00000000E+30  1.00000000E+30  1.00000000E+30  1.00000000E+30  1.00000000E+30  1.00000000E+30  1.00000000E+30  1.00000000E+30  1.00000000E+30  1.00000000E+30  1.00000000E+30  1.00000000E+30      24.46684093      24.24905147      23.86843495      23.50624475      22.58973628      21.51818433      20.05393767      21.89178232      16.98312286      16.07903245      14.74973305      10.29516519      10.10285761       9.82220251       9.47394043       9.15418271       9.16491376       9.25407196       9.68265265      10.35957994  1.00000000E+30  1.00000000E+30  1.00000000E+30  1.00000000E+30  1.00000000E+30  1.00000000E+30  1.00000000E+30  1.00000000E+30
      1.00000000E+30  1.00000000E+30  1.00000000E+30  1.00000000E+30  1.00000000E+30  1.00000000E+30  1.00000000E+30  1.00000000E+30  1.00000000E+30  1.00000000E+30  1.00000000E+30  1.00000000E+30  1.00000000E+30  1.00000000E+30  1.00000000E+30  1.00000000E+30  1.00000000E+30  1.00000000E+30  1.00000000E+30  1.00000000E+30  1.00000000E+30  1.00000000E+30  1.00000000E+30  1.00000000E+30  1.00000000E+30  1.00000000E+30  1.00000000E+30  1.00000000E+30  1.00000000E+30  1.00000000E+30  1.00000000E+30  1.00000000E+30  1.00000000E+30  1.00000000E+30  1.00000000E+30  1.00000000E+30  1.00000000E+30  1.00000000E+30      24.06641202      23.79298468      23.73590605      22.85640465      21.30373771      21.00403104      19.91688094      18.46812338      20.72971465      17.09028014      10.67324089      10.46699034      10.24203511       9.95685470       9.70867404       9.13838220       8.69986788       8.19448243       9.23033041      10.08574457  1.00000000E+30  1.00000000E+30  1.00000000E+30  1.00000000E+30  1.00000000E+30  1.00000000E+30  1.00000000E+30  1.00000000E+30
      1.00000000E+30  1.00000000E+30  1.00000000E+30  1.00000000E+30  1.00000000E+30  1.00000000E+30  1.00000000E+30  1.00000000E+30  1.00000000E+30  1.00000000E+30  1.00000000E+30  1.00000000E+30  1.00000000E+30  1.00000000E+30  1.00000000E+30  1.00000000E+30  1.00000000E+30  1.00000000E+30  1.00000000E+30  1.00000000E+30  1.00000000E+30  1.00000000E+30  1.00000000E+30  1.00000000E+30  1.00000000E+30  1.00000000E+30  1.00000000E+30  1.00000000E+30  1.00000000E+30  1.00000000E+30  1.00000000E+30  1.00000000E+30  1.00000000E+30  1.00000000E+30  1.00000000E+30  1.00000000E+30  1.00000000E+30  1.00000000E+30      21.76778280      22.47620341      22.51033417      21.81376356      21.22992061      20.19720039      18.99883887      18.28511000      16.66538497      10.78329602      10.67193318      10.45383522      10.22340089      10.00165359       9.75366922       9.41103624       8.94525961       8.36481923       8.20838201       8.37660507  1.00000000E+30  1.00000000E+30  1.00000000E+30  1.00000000E+30  1.00000000E+30  1.00000000E+30  1.00000000E+30  1.00000000E+30
      1.00000000E+30  1.00000000E+30  1.00000000E+30  1.00000000E+30  1.00000000E+30  1.00000000E+30  1.00000000E+30  1.00000000E+30  1.00000000E+30  1.00000000E+30  1.00000000E+30  1.00000000E+30  1.00000000E+30  1.00000000E+30  1.00000000E+30  1.00000000E+30  1.00000000E+30  1.00000000E+30  1.00000000E+30  1.00000000E+30  1.00000000E+30  1.00000000E+30  1.00000000E+30  1.00000000E+30  1.00000000E+30  1.00000000E+30  1.00000000E+30  1.00000000E+30  1.00000000E+30  1.00000000E+30  1.00000000E+30  1.00000000E+30  1.00000000E+30  1.00000000E+30  1.00000000E+30  1.00000000E+30  1.00000000E+30  1.00000000E+30      20.83916569      21.68061797      21.22518433      19.53719914      20.04618249      18.59076614      17.95724840      16.51167103      15.52192991      10.69690909      10.59830448      10.40529567      10.18629958      10.01262430       9.80804713       9.54629406       9.06733382       8.66082105       8.46435053       8.42311325  1.00000000E+30  1.00000000E+30  1.00000000E+30  1.00000000E+30  1.00000000E+30  1.00000000E+30  1.00000000E+30  1.00000000E+30
      1.00000000E+30  1.00000000E+30  1.00000000E+30  1.00000000E+30  1.00000000E+30  1.00000000E+30  1.00000000E+30  1.00000000E+30  1.00000000E+30  1.00000000E+30  1.00000000E+30  1.00000000E+30  1.00000000E+30  1.00000000E+30  1.00000000E+30  1.00000000E+30  1.00000000E+30  1.00000000E+30  1.00000000E+30  1.00000000E+30  1.00000000E+30  1.00000000E+30  1.00000000E+30  1.00000000E+30  1.00000000E+30  1.00000000E+30  1.00000000E+30  1.00000000E+30  1.00000000E+30  1.00000000E+30  1.00000000E+30  1.00000000E+30  1.00000000E+30  1.00000000E+30  1.00000000E+30  1.00000000E+30  1.00000000E+30  1.00000000E+30  1.00000000E+30      21.39860273      19.19387160      19.50798978      19.14854676      17.99860272      16.85259714      16.92974437      17.20851938      17.16195261      16.04840827      15.91296407      10.07613369       9.97562925       9.84676191       9.67370500       9.77644809       8.88019573       8.30394551       8.59552387  1.00000000E+30  1.00000000E+30  1.00000000E+30  1.00000000E+30  1.00000000E+30  1.00000000E+30  1.00000000E+30  1.00000000E+30
      1.00000000E+30  1.00000000E+30  1.00000000E+30  1.00000000E+30  1.00000000E+30  1.00000000E+30  1.00000000E+30  1.00000000E+30  1.00000000E+30  1.00000000E+30  1.00000000E+30  1.00000000E+30  1.00000000E+30  1.00000000E+30  1.00000000E+30  1.00000000E+30  1.00000000E+30  1.00000000E+30  1.00000000E+30  1.00000000E+30  1.00000000E+30  1.00000000E+30  1.00000000E+30  1.00000000E+30  1.00000000E+30  1.00000000E+30  1.00000000E+30  1.00000000E+30  1.00000000E+30  1.00000000E+30  1.00000000E+30  1.00000000E+30  1.00000000E+30  1.00000000E+30  1.00000000E+30  1.00000000E+30  1.00000000E+30  1.00000000E+30  1.00000000E+30      20.61479785      20.04866962      19.91710787      19.21767980      17.61350737      17.98820986      18.30971911      19.35372388      17.70225426      17.50845510      16.92317461      10.02914044       9.96395139       9.86125597       9.84803593       9.03123841       8.77006234       8.99710078       9.05974995       9.25225292  1.00000000E+30  1.00000000E+30  1.00000000E+30  1.00000000E+30  1.00000000E+30  1.00000000E+30  1.00000000E+30
      1.00000000E+30  1.00000000E+30  1.00000000E+30  1.00000000E+30  1.00000000E+30  1.00000000E+30  1.00000000E+30  1.00000000E+30  1.00000000E+30  1.00000000E+30  1.00000000E+30  1.00000000E+30  1.00000000E+30  1.00000000E+30  1.00000000E+30  1.00000000E+30  1.00000000E+30  1.00000000E+30  1.00000000E+30  1.00000000E+30  1.00000000E+30  1.00000000E+30  1.00000000E+30  1.00000000E+30  1.00000000E+30  1.00000000E+30  1.00000000E+30  1.00000000E+30  1.00000000E+30  1.00000000E+30  1.00000000E+30  1.00000000E+30  1.00000000E+30  1.00000000E+30  1.00000000E+30  1.00000000E+30  1.00000000E+30  1.00000000E+30  1.00000000E+30  1.00000000E+30      20.75738467      19.98987035      19.68892834      19.41745523      19.11108477      20.06808339      20.58646054      19.85795160      19.43717667      18.44421047      15.68365197       9.95647797       9.88679268       9.69810730       9.52444415       9.93483109      10.14513154       8.94660772       9.13409772  1.00000000E+30  1.00000000E+30  1.00000000E+30  1.00000000E+30  1.00000000E+30  1.00000000E+30  1.00000000E+30
      1.00000000E+30  1.00000000E+30  1.00000000E+30  1.00000000E+30  1.00000000E+30  1.00000000E+30  1.00000000E+30  1.00000000E+30  1.00000000E+30  1.00000000E+30  1.00000000E+30  1.00000000E+30  1.00000000E+30  1.00000000E+30  1.00000000E+30  1.00000000E+30  1.00000000E+30  1.00000000E+30  1.00000000E+30  1.00000000E+30  1.00000000E+30  1.00000000E+30  1.00000000E+30  1.00000000E+30  1.00000000E+30  1.00000000E+30  1.00000000E+30  1.00000000E+30  1.00000000E+30  1.00000000E+30  1.00000000E+30  1.00000000E+30  1.00000000E+30  1.00000000E+30  1.00000000E+30  1.00000000E+30  1.00000000E+30  1.00000000E+30  1.00000000E+30  1.00000000E+30      21.53789165      20.81983238      20.62912274      20.56007957      21.08873886      22.00540865      21.67758738      21.38314724      21.02399691      18.43566904      13.93643600       9.99435364       9.87504461       9.75087244       9.65650846       8.18433096       9.68046380      12.65045947       9.49218665  1.00000000E+30  1.00000000E+30  1.00000000E+30  1.00000000E+30  1.00000000E+30  1.00000000E+30  1.00000000E+30
      1.00000000E+30  1.00000000E+30  1.00000000E+30  1.00000000E+30  1.00000000E+30  1.00000000E+30  1.00000000E+30  1.00000000E+30  1.00000000E+30  1.00000000E+30  1.00000000E+30  1.00000000E+30  1.00000000E+30  1.00000000E+30  1.00000000E+30  1.00000000E+30  1.00000000E+30  1.00000000E+30  1.00000000E+30  1.00000000E+30  1.00000000E+30  1.00000000E+30  1.00000000E+30  1.00000000E+30  1.00000000E+30  1.00000000E+30  1.00000000E+30  1.00000000E+30  1.00000000E+30  1.00000000E+30  1.00000000E+30  1.00000000E+30  1.00000000E+30  1.00000000E+30  1.00000000E+30  1.00000000E+30  1.00000000E+30  1.00000000E+30  1.00000000E+30      23.51087453      22.66302326      22.28859646      22.06968965      22.43848238      22.93732844      23.02702500      22.21603998      19.08245263      21.55727587      17.91534360      13.25660554      10.11848923       9.94743552       9.67761577       9.67525328       8.48364395       9.53885978      10.44104154  1.00000000E+30  1.00000000E+30  1.00000000E+30  1.00000000E+30  1.00000000E+30  1.00000000E+30  1.00000000E+30  1.00000000E+30
      1.00000000E+30  1.00000000E+30  1.00000000E+30  1.00000000E+30  1.00000000E+30  1.00000000E+30  1.00000000E+30  1.00000000E+30  1.00000000E+30  1.00000000E+30  1.00000000E+30  1.00000000E+30  1.00000000E+30  1.00000000E+30  1.00000000E+30  1.00000000E+30  1.00000000E+30  1.00000000E+30  1.00000000E+30  1.00000000E+30  1.00000000E+30  1.00000000E+30  1.00000000E+30  1.00000000E+30  1.00000000E+30  1.00000000E+30  1.00000000E+30  1.00000000E+30  1.00000000E+30  1.00000000E+30  1.00000000E+30  1.00000000E+30  1.00000000E+30  1.00000000E+30  1.00000000E+30  1.00000000E+30  1.00000000E+30  1.00000000E+30      25.15781877      24.91412216      24.36226364      23.71417976      23.93724957      24.26685015      24.44562962      24.02559106      23.29592519      22.02894027      19.74581079      15.44090762      12.04859969      10.19302621      10.11465387       9.93921622       9.87965753       9.91564520      10.09946586      11.60521173  1.00000000E+30  1.00000000E+30  1.00000000E+30  1.00000000E+30  1.00000000E+30  1.00000000E+30  1.00000000E+30  1.00000000E+30
      1.00000000E+30  1.00000000E+30  1.00000000E+30  1.00000000E+30  1.00000000E+30  1.00000000E+30  1.00000000E+30  1.00000000E+30  1.00000000E+30  1.00000000E+30  1.00000000E+30  1.00000000E+30  1.00000000E+30  1.00000000E+30  1.00000000E+30  1.00000000E+30  1.00000000E+30  1.00000000E+30  1.00000000E+30  1.00000000E+30  1.00000000E+30  1.00000000E+30  1.00000000E+30  1.00000000E+30  1.00000000E+30  1.00000000E+30  1.00000000E+30  1.00000000E+30  1.00000000E+30  1.00000000E+30  1.00000000E+30  1.00000000E+30  1.00000000E+30  1.00000000E+30  1.00000000E+30  1.00000000E+30  1.00000000E+30  1.00000000E+30      26.28696902      25.53957768      24.97264069      24.75019512      24.90740567      25.18530441      24.65670373      23.39934222      23.18925226      18.71658356      17.57509180      13.79060897      11.10037646      10.36841221      10.29365375      10.22840071      10.13123868      10.11855851      10.65741404      11.26898027  1.00000000E+30  1.00000000E+30  1.00000000E+30  1.00000000E+30  1.00000000E+30  1.00000000E+30  1.00000000E+30  1.00000000E+30
      1.00000000E+30  1.00000000E+30  1.00000000E+30  1.00000000E+30  1.00000000E+30  1.00000000E+30  1.00000000E+30  1.00000000E+30  1.00000000E+30  1.00000000E+30  1.00000000E+30  1.00000000E+30  1.00000000E+30  1.00000000E+30  1.00000000E+30  1.00000000E+30  1.00000000E+30  1.00000000E+30  1.00000000E+30  1.00000000E+30  1.00000000E+30  1.00000000E+30  1.00000000E+30  1.00000000E+30  1.00000000E+30  1.00000000E+30  1.00000000E+30  1.00000000E+30  1.00000000E+30  1.00000000E+30  1.00000000E+30  1.00000000E+30  1.00000000E+30  1.00000000E+30  1.00000000E+30  1.00000000E+30  1.00000000E+30      26.82982464      25.41707213      25.14997137      25.44362922      25.18489596      25.13791290      24.79925991      24.45420213      22.46714121      20.36939495      18.44412532      14.93128289      12.83964729      10.87927952      10.72734412      10.59182873      10.50300591      10.43723781      10.33234634      10.72030069      12.21683449  1.00000000E+30  1.00000000E+30  1.00000000E+30  1.00000000E+30  1.00000000E+30  1.00000000E+30  1.00000000E+30  1.00000000E+30