# File generated by Flopy version 3.6.0 on 04/12/2024 at 17:21:17.
BEGIN options
  SAVE_FLOWS
  NEWTON  UNDER_RELAXATION
END options

BEGIN packages
  OC6  Gondebeek.oc  oc
  IC6  Gondebeek.ic  ic
  DIS6  Gondebeek.dis  dis
  NPF6  Gondebeek.npf  npf
  STO6  Gondebeek.sto  sto
  RCH6  Gondebeek.rcha  rch
  RIV6  Gondebeek.riv  riv
  DRN6  Gondebeek.drn  drn
END packages

