# File generated by Flopy version 3.6.0 on 04/12/2024 at 17:21:17.
BEGIN options
END options

BEGIN timing
  TDIS6  Gondebeek.tdis
END timing

BEGIN models
  gwf6  Gondebeek.nam  Gondebeek
END models

BEGIN exchanges
END exchanges

BEGIN solutiongroup  1
  ims6  Gondebeek.ims  Gondebeek
END solutiongroup  1

